  Page 1                                    Sat Jan 14 21:29:20 2023

  ******************************************************************
  *                           E P A N E T                          *
  *                   Hydraulic and Water Quality                  *
  *                   Analysis for Pipe Networks                   *
  *                         Version 2.2                            *
  ******************************************************************
  
  Analysis begun Sat Jan 14 21:29:20 2023

   
  Hydraulic Status:
  -----------------------------------------------------------------------
     0:00:00: Balanced after 5 trials
     0:00:00: Reservoir River is emptying
     0:00:00: Reservoir Lake is closed
     0:00:00: Tank 1 is emptying at 13.10 ft
     0:00:00: Tank 2 is emptying at 23.50 ft
     0:00:00: Tank 3 is emptying at 29.00 ft
   
  WARNING: Negative pressures at 0:00:00 hrs.
  WARNING: Pump 335 open but exceeds maximum flow at 0:00:00 hrs.
   
     0:00:06: Balanced after 1 trials
   
  WARNING: Negative pressures at 0:00:06 hrs.
  WARNING: Pump 335 open but exceeds maximum flow at 0:00:06 hrs.
   
     0:00:08: Balanced after 4 trials
     0:00:08: Tank 1 is closed at 0.10 ft
     0:00:08: Tank 2 is closed at 6.22 ft
     0:00:08: Pipe 40 changed from open to temporarily closed
     0:00:08: Pipe 50 changed from open to temporarily closed
   
  WARNING: Negative pressures at 0:00:08 hrs.
  WARNING: Pump 335 open but exceeds maximum flow at 0:00:08 hrs.
   
     0:00:15: Balanced after 4 trials
     0:00:15: Tank 3 is closed at 3.51 ft
     0:00:15: Pipe 20 changed from open to temporarily closed
   
  WARNING: Negative pressures at 0:00:15 hrs.
  WARNING: Pump 335 open but exceeds maximum flow at 0:00:15 hrs.
   
     0:15:00: Balanced after 1 trials
   
  WARNING: Negative pressures at 0:15:00 hrs.
  WARNING: Pump 335 open but exceeds maximum flow at 0:15:00 hrs.
   
     0:30:00: Balanced after 1 trials
   
  WARNING: Negative pressures at 0:30:00 hrs.
  WARNING: Pump 335 open but exceeds maximum flow at 0:30:00 hrs.
   
     0:45:00: Balanced after 1 trials
   
  WARNING: Negative pressures at 0:45:00 hrs.
  WARNING: Pump 335 open but exceeds maximum flow at 0:45:00 hrs.
   
     1:00:00: Pump 10 changed by timer control
     1:00:00: Balanced after 5 trials
     1:00:00: Reservoir Lake is emptying
     1:00:00: Pump 10 changed from closed to open
   
  WARNING: Negative pressures at 1:00:00 hrs.
  WARNING: Pump 10 open but exceeds maximum flow at 1:00:00 hrs.
  WARNING: Pump 335 open but exceeds maximum flow at 1:00:00 hrs.
   
     1:15:00: Balanced after 1 trials
   
  WARNING: Negative pressures at 1:15:00 hrs.
  WARNING: Pump 10 open but exceeds maximum flow at 1:15:00 hrs.
  WARNING: Pump 335 open but exceeds maximum flow at 1:15:00 hrs.
   
     1:30:00: Balanced after 1 trials
   
  WARNING: Negative pressures at 1:30:00 hrs.
  WARNING: Pump 10 open but exceeds maximum flow at 1:30:00 hrs.
  WARNING: Pump 335 open but exceeds maximum flow at 1:30:00 hrs.
   
     1:45:00: Balanced after 1 trials
   
  WARNING: Negative pressures at 1:45:00 hrs.
  WARNING: Pump 10 open but exceeds maximum flow at 1:45:00 hrs.
  WARNING: Pump 335 open but exceeds maximum flow at 1:45:00 hrs.
   
     2:00:00: Balanced after 2 trials
   
  WARNING: Negative pressures at 2:00:00 hrs.
  WARNING: Pump 10 open but exceeds maximum flow at 2:00:00 hrs.
  WARNING: Pump 335 open but exceeds maximum flow at 2:00:00 hrs.
   
     2:15:00: Balanced after 1 trials
   
  WARNING: Negative pressures at 2:15:00 hrs.
  WARNING: Pump 10 open but exceeds maximum flow at 2:15:00 hrs.
  WARNING: Pump 335 open but exceeds maximum flow at 2:15:00 hrs.
   
     2:30:00: Balanced after 1 trials
   
  WARNING: Negative pressures at 2:30:00 hrs.
  WARNING: Pump 10 open but exceeds maximum flow at 2:30:00 hrs.
  WARNING: Pump 335 open but exceeds maximum flow at 2:30:00 hrs.
   
     2:45:00: Balanced after 1 trials
   
  WARNING: Negative pressures at 2:45:00 hrs.
  WARNING: Pump 10 open but exceeds maximum flow at 2:45:00 hrs.
  WARNING: Pump 335 open but exceeds maximum flow at 2:45:00 hrs.
   
     3:00:00: Balanced after 2 trials
   
  WARNING: Negative pressures at 3:00:00 hrs.
  WARNING: Pump 10 open but exceeds maximum flow at 3:00:00 hrs.
  WARNING: Pump 335 open but exceeds maximum flow at 3:00:00 hrs.
   
     3:15:00: Balanced after 1 trials
   
  WARNING: Negative pressures at 3:15:00 hrs.
  WARNING: Pump 10 open but exceeds maximum flow at 3:15:00 hrs.
  WARNING: Pump 335 open but exceeds maximum flow at 3:15:00 hrs.
   
     3:30:00: Balanced after 1 trials
   
  WARNING: Negative pressures at 3:30:00 hrs.
  WARNING: Pump 10 open but exceeds maximum flow at 3:30:00 hrs.
  WARNING: Pump 335 open but exceeds maximum flow at 3:30:00 hrs.
   
     3:45:00: Balanced after 1 trials
   
  WARNING: Negative pressures at 3:45:00 hrs.
  WARNING: Pump 10 open but exceeds maximum flow at 3:45:00 hrs.
  WARNING: Pump 335 open but exceeds maximum flow at 3:45:00 hrs.
   
     4:00:00: Balanced after 2 trials
   
  WARNING: Negative pressures at 4:00:00 hrs.
  WARNING: Pump 10 open but exceeds maximum flow at 4:00:00 hrs.
  WARNING: Pump 335 open but exceeds maximum flow at 4:00:00 hrs.
   
     4:15:00: Balanced after 1 trials
   
  WARNING: Negative pressures at 4:15:00 hrs.
  WARNING: Pump 10 open but exceeds maximum flow at 4:15:00 hrs.
  WARNING: Pump 335 open but exceeds maximum flow at 4:15:00 hrs.
   
     4:30:00: Balanced after 1 trials
   
  WARNING: Negative pressures at 4:30:00 hrs.
  WARNING: Pump 10 open but exceeds maximum flow at 4:30:00 hrs.
  WARNING: Pump 335 open but exceeds maximum flow at 4:30:00 hrs.
   
     4:45:00: Balanced after 1 trials
   
  WARNING: Negative pressures at 4:45:00 hrs.
  WARNING: Pump 10 open but exceeds maximum flow at 4:45:00 hrs.
  WARNING: Pump 335 open but exceeds maximum flow at 4:45:00 hrs.
   
     5:00:00: Balanced after 2 trials
   
  WARNING: Negative pressures at 5:00:00 hrs.
  WARNING: Pump 10 open but exceeds maximum flow at 5:00:00 hrs.
  WARNING: Pump 335 open but exceeds maximum flow at 5:00:00 hrs.
   
     5:15:00: Balanced after 1 trials
   
  WARNING: Negative pressures at 5:15:00 hrs.
  WARNING: Pump 10 open but exceeds maximum flow at 5:15:00 hrs.
  WARNING: Pump 335 open but exceeds maximum flow at 5:15:00 hrs.
   
     5:30:00: Balanced after 1 trials
   
  WARNING: Negative pressures at 5:30:00 hrs.
  WARNING: Pump 10 open but exceeds maximum flow at 5:30:00 hrs.
  WARNING: Pump 335 open but exceeds maximum flow at 5:30:00 hrs.
   
     5:45:00: Balanced after 1 trials
   
  WARNING: Negative pressures at 5:45:00 hrs.
  WARNING: Pump 10 open but exceeds maximum flow at 5:45:00 hrs.
  WARNING: Pump 335 open but exceeds maximum flow at 5:45:00 hrs.
   
     6:00:00: Balanced after 2 trials
   
  WARNING: Negative pressures at 6:00:00 hrs.
  WARNING: Pump 10 open but exceeds maximum flow at 6:00:00 hrs.
  WARNING: Pump 335 open but exceeds maximum flow at 6:00:00 hrs.
   
     6:15:00: Balanced after 1 trials
   
  WARNING: Negative pressures at 6:15:00 hrs.
  WARNING: Pump 10 open but exceeds maximum flow at 6:15:00 hrs.
  WARNING: Pump 335 open but exceeds maximum flow at 6:15:00 hrs.
   
     6:30:00: Balanced after 1 trials
   
  WARNING: Negative pressures at 6:30:00 hrs.
  WARNING: Pump 10 open but exceeds maximum flow at 6:30:00 hrs.
  WARNING: Pump 335 open but exceeds maximum flow at 6:30:00 hrs.
   
     6:45:00: Balanced after 1 trials
   
  WARNING: Negative pressures at 6:45:00 hrs.
  WARNING: Pump 10 open but exceeds maximum flow at 6:45:00 hrs.
  WARNING: Pump 335 open but exceeds maximum flow at 6:45:00 hrs.
   
     7:00:00: Balanced after 2 trials
   
  WARNING: Negative pressures at 7:00:00 hrs.
  WARNING: Pump 10 open but exceeds maximum flow at 7:00:00 hrs.
  WARNING: Pump 335 open but exceeds maximum flow at 7:00:00 hrs.
   
     7:15:00: Balanced after 1 trials
   
  WARNING: Negative pressures at 7:15:00 hrs.
  WARNING: Pump 10 open but exceeds maximum flow at 7:15:00 hrs.
  WARNING: Pump 335 open but exceeds maximum flow at 7:15:00 hrs.
   
     7:30:00: Balanced after 1 trials
   
  WARNING: Negative pressures at 7:30:00 hrs.
  WARNING: Pump 10 open but exceeds maximum flow at 7:30:00 hrs.
  WARNING: Pump 335 open but exceeds maximum flow at 7:30:00 hrs.
   
     7:45:00: Balanced after 1 trials
   
  WARNING: Negative pressures at 7:45:00 hrs.
  WARNING: Pump 10 open but exceeds maximum flow at 7:45:00 hrs.
  WARNING: Pump 335 open but exceeds maximum flow at 7:45:00 hrs.
   
     8:00:00: Balanced after 2 trials
   
  WARNING: Negative pressures at 8:00:00 hrs.
  WARNING: Pump 10 open but exceeds maximum flow at 8:00:00 hrs.
  WARNING: Pump 335 open but exceeds maximum flow at 8:00:00 hrs.
   
     8:15:00: Balanced after 1 trials
   
  WARNING: Negative pressures at 8:15:00 hrs.
  WARNING: Pump 10 open but exceeds maximum flow at 8:15:00 hrs.
  WARNING: Pump 335 open but exceeds maximum flow at 8:15:00 hrs.
   
     8:30:00: Balanced after 1 trials
   
  WARNING: Negative pressures at 8:30:00 hrs.
  WARNING: Pump 10 open but exceeds maximum flow at 8:30:00 hrs.
  WARNING: Pump 335 open but exceeds maximum flow at 8:30:00 hrs.
   
     8:45:00: Balanced after 1 trials
   
  WARNING: Negative pressures at 8:45:00 hrs.
  WARNING: Pump 10 open but exceeds maximum flow at 8:45:00 hrs.
  WARNING: Pump 335 open but exceeds maximum flow at 8:45:00 hrs.
   
     9:00:00: Balanced after 2 trials
   
  WARNING: Negative pressures at 9:00:00 hrs.
  WARNING: Pump 10 open but exceeds maximum flow at 9:00:00 hrs.
  WARNING: Pump 335 open but exceeds maximum flow at 9:00:00 hrs.
   
     9:15:00: Balanced after 1 trials
   
  WARNING: Negative pressures at 9:15:00 hrs.
  WARNING: Pump 10 open but exceeds maximum flow at 9:15:00 hrs.
  WARNING: Pump 335 open but exceeds maximum flow at 9:15:00 hrs.
   
     9:30:00: Balanced after 1 trials
   
  WARNING: Negative pressures at 9:30:00 hrs.
  WARNING: Pump 10 open but exceeds maximum flow at 9:30:00 hrs.
  WARNING: Pump 335 open but exceeds maximum flow at 9:30:00 hrs.
   
     9:45:00: Balanced after 1 trials
   
  WARNING: Negative pressures at 9:45:00 hrs.
  WARNING: Pump 10 open but exceeds maximum flow at 9:45:00 hrs.
  WARNING: Pump 335 open but exceeds maximum flow at 9:45:00 hrs.
   
    10:00:00: Balanced after 2 trials
   
  WARNING: Negative pressures at 10:00:00 hrs.
  WARNING: Pump 10 open but exceeds maximum flow at 10:00:00 hrs.
  WARNING: Pump 335 open but exceeds maximum flow at 10:00:00 hrs.
   
    10:15:00: Balanced after 1 trials
   
  WARNING: Negative pressures at 10:15:00 hrs.
  WARNING: Pump 10 open but exceeds maximum flow at 10:15:00 hrs.
  WARNING: Pump 335 open but exceeds maximum flow at 10:15:00 hrs.
   
    10:30:00: Balanced after 1 trials
   
  WARNING: Negative pressures at 10:30:00 hrs.
  WARNING: Pump 10 open but exceeds maximum flow at 10:30:00 hrs.
  WARNING: Pump 335 open but exceeds maximum flow at 10:30:00 hrs.
   
    10:45:00: Balanced after 1 trials
   
  WARNING: Negative pressures at 10:45:00 hrs.
  WARNING: Pump 10 open but exceeds maximum flow at 10:45:00 hrs.
  WARNING: Pump 335 open but exceeds maximum flow at 10:45:00 hrs.
   
    11:00:00: Balanced after 2 trials
   
  WARNING: Negative pressures at 11:00:00 hrs.
  WARNING: Pump 10 open but exceeds maximum flow at 11:00:00 hrs.
  WARNING: Pump 335 open but exceeds maximum flow at 11:00:00 hrs.
   
    11:15:00: Balanced after 1 trials
   
  WARNING: Negative pressures at 11:15:00 hrs.
  WARNING: Pump 10 open but exceeds maximum flow at 11:15:00 hrs.
  WARNING: Pump 335 open but exceeds maximum flow at 11:15:00 hrs.
   
    11:30:00: Balanced after 1 trials
   
  WARNING: Negative pressures at 11:30:00 hrs.
  WARNING: Pump 10 open but exceeds maximum flow at 11:30:00 hrs.
  WARNING: Pump 335 open but exceeds maximum flow at 11:30:00 hrs.
   
    11:45:00: Balanced after 1 trials
   
  WARNING: Negative pressures at 11:45:00 hrs.
  WARNING: Pump 10 open but exceeds maximum flow at 11:45:00 hrs.
  WARNING: Pump 335 open but exceeds maximum flow at 11:45:00 hrs.
   
    12:00:00: Balanced after 2 trials
   
  WARNING: Negative pressures at 12:00:00 hrs.
  WARNING: Pump 10 open but exceeds maximum flow at 12:00:00 hrs.
  WARNING: Pump 335 open but exceeds maximum flow at 12:00:00 hrs.
   
    12:15:00: Balanced after 1 trials
   
  WARNING: Negative pressures at 12:15:00 hrs.
  WARNING: Pump 10 open but exceeds maximum flow at 12:15:00 hrs.
  WARNING: Pump 335 open but exceeds maximum flow at 12:15:00 hrs.
   
    12:30:00: Balanced after 1 trials
   
  WARNING: Negative pressures at 12:30:00 hrs.
  WARNING: Pump 10 open but exceeds maximum flow at 12:30:00 hrs.
  WARNING: Pump 335 open but exceeds maximum flow at 12:30:00 hrs.
   
    12:45:00: Balanced after 1 trials
   
  WARNING: Negative pressures at 12:45:00 hrs.
  WARNING: Pump 10 open but exceeds maximum flow at 12:45:00 hrs.
  WARNING: Pump 335 open but exceeds maximum flow at 12:45:00 hrs.
   
    13:00:00: Balanced after 2 trials
   
  WARNING: Negative pressures at 13:00:00 hrs.
  WARNING: Pump 10 open but exceeds maximum flow at 13:00:00 hrs.
  WARNING: Pump 335 open but exceeds maximum flow at 13:00:00 hrs.
   
    13:15:00: Balanced after 1 trials
   
  WARNING: Negative pressures at 13:15:00 hrs.
  WARNING: Pump 10 open but exceeds maximum flow at 13:15:00 hrs.
  WARNING: Pump 335 open but exceeds maximum flow at 13:15:00 hrs.
   
    13:30:00: Balanced after 1 trials
   
  WARNING: Negative pressures at 13:30:00 hrs.
  WARNING: Pump 10 open but exceeds maximum flow at 13:30:00 hrs.
  WARNING: Pump 335 open but exceeds maximum flow at 13:30:00 hrs.
   
    13:45:00: Balanced after 1 trials
   
  WARNING: Negative pressures at 13:45:00 hrs.
  WARNING: Pump 10 open but exceeds maximum flow at 13:45:00 hrs.
  WARNING: Pump 335 open but exceeds maximum flow at 13:45:00 hrs.
   
    14:00:00: Balanced after 2 trials
   
  WARNING: Negative pressures at 14:00:00 hrs.
  WARNING: Pump 10 open but exceeds maximum flow at 14:00:00 hrs.
  WARNING: Pump 335 open but exceeds maximum flow at 14:00:00 hrs.
   
    14:15:00: Balanced after 1 trials
   
  WARNING: Negative pressures at 14:15:00 hrs.
  WARNING: Pump 10 open but exceeds maximum flow at 14:15:00 hrs.
  WARNING: Pump 335 open but exceeds maximum flow at 14:15:00 hrs.
   
    14:30:00: Balanced after 1 trials
   
  WARNING: Negative pressures at 14:30:00 hrs.
  WARNING: Pump 10 open but exceeds maximum flow at 14:30:00 hrs.
  WARNING: Pump 335 open but exceeds maximum flow at 14:30:00 hrs.
   
    14:45:00: Balanced after 1 trials
   
  WARNING: Negative pressures at 14:45:00 hrs.
  WARNING: Pump 10 open but exceeds maximum flow at 14:45:00 hrs.
  WARNING: Pump 335 open but exceeds maximum flow at 14:45:00 hrs.
   
    15:00:00: Pump 10 changed by timer control
    15:00:00: Balanced after 4 trials
    15:00:00: Reservoir Lake is closed
    15:00:00: Pump 10 changed from open to closed
   
  WARNING: Negative pressures at 15:00:00 hrs.
  WARNING: Pump 335 open but exceeds maximum flow at 15:00:00 hrs.
   
    15:15:00: Balanced after 1 trials
   
  WARNING: Negative pressures at 15:15:00 hrs.
  WARNING: Pump 335 open but exceeds maximum flow at 15:15:00 hrs.
   
    15:30:00: Balanced after 1 trials
   
  WARNING: Negative pressures at 15:30:00 hrs.
  WARNING: Pump 335 open but exceeds maximum flow at 15:30:00 hrs.
   
    15:45:00: Balanced after 1 trials
   
  WARNING: Negative pressures at 15:45:00 hrs.
  WARNING: Pump 335 open but exceeds maximum flow at 15:45:00 hrs.
   
    16:00:00: Balanced after 2 trials
   
  WARNING: Negative pressures at 16:00:00 hrs.
  WARNING: Pump 335 open but exceeds maximum flow at 16:00:00 hrs.
   
    16:15:00: Balanced after 1 trials
   
  WARNING: Negative pressures at 16:15:00 hrs.
  WARNING: Pump 335 open but exceeds maximum flow at 16:15:00 hrs.
   
    16:30:00: Balanced after 1 trials
   
  WARNING: Negative pressures at 16:30:00 hrs.
  WARNING: Pump 335 open but exceeds maximum flow at 16:30:00 hrs.
   
    16:45:00: Balanced after 1 trials
   
  WARNING: Negative pressures at 16:45:00 hrs.
  WARNING: Pump 335 open but exceeds maximum flow at 16:45:00 hrs.
   
    17:00:00: Balanced after 2 trials
   
  WARNING: Negative pressures at 17:00:00 hrs.
  WARNING: Pump 335 open but exceeds maximum flow at 17:00:00 hrs.
   
    17:15:00: Balanced after 1 trials
   
  WARNING: Negative pressures at 17:15:00 hrs.
  WARNING: Pump 335 open but exceeds maximum flow at 17:15:00 hrs.
   
    17:30:00: Balanced after 1 trials
   
  WARNING: Negative pressures at 17:30:00 hrs.
  WARNING: Pump 335 open but exceeds maximum flow at 17:30:00 hrs.
   
    17:45:00: Balanced after 1 trials
   
  WARNING: Negative pressures at 17:45:00 hrs.
  WARNING: Pump 335 open but exceeds maximum flow at 17:45:00 hrs.
   
    18:00:00: Balanced after 2 trials
   
  WARNING: Negative pressures at 18:00:00 hrs.
  WARNING: Pump 335 open but exceeds maximum flow at 18:00:00 hrs.
   
    18:15:00: Balanced after 1 trials
   
  WARNING: Negative pressures at 18:15:00 hrs.
  WARNING: Pump 335 open but exceeds maximum flow at 18:15:00 hrs.
   
    18:30:00: Balanced after 1 trials
   
  WARNING: Negative pressures at 18:30:00 hrs.
  WARNING: Pump 335 open but exceeds maximum flow at 18:30:00 hrs.
   
    18:45:00: Balanced after 1 trials
   
  WARNING: Negative pressures at 18:45:00 hrs.
  WARNING: Pump 335 open but exceeds maximum flow at 18:45:00 hrs.
   
    19:00:00: Balanced after 1 trials
   
  WARNING: Negative pressures at 19:00:00 hrs.
  WARNING: Pump 335 open but exceeds maximum flow at 19:00:00 hrs.
   
    19:15:00: Balanced after 1 trials
   
  WARNING: Negative pressures at 19:15:00 hrs.
  WARNING: Pump 335 open but exceeds maximum flow at 19:15:00 hrs.
   
    19:30:00: Balanced after 1 trials
   
  WARNING: Negative pressures at 19:30:00 hrs.
  WARNING: Pump 335 open but exceeds maximum flow at 19:30:00 hrs.
   
    19:45:00: Balanced after 1 trials
   
  WARNING: Negative pressures at 19:45:00 hrs.
  WARNING: Pump 335 open but exceeds maximum flow at 19:45:00 hrs.
   
    20:00:00: Balanced after 2 trials
   
  WARNING: Negative pressures at 20:00:00 hrs.
  WARNING: Pump 335 open but exceeds maximum flow at 20:00:00 hrs.
   
    20:15:00: Balanced after 1 trials
   
  WARNING: Negative pressures at 20:15:00 hrs.
  WARNING: Pump 335 open but exceeds maximum flow at 20:15:00 hrs.
   
    20:30:00: Balanced after 1 trials
   
  WARNING: Negative pressures at 20:30:00 hrs.
  WARNING: Pump 335 open but exceeds maximum flow at 20:30:00 hrs.
   
    20:45:00: Balanced after 1 trials
   
  WARNING: Negative pressures at 20:45:00 hrs.
  WARNING: Pump 335 open but exceeds maximum flow at 20:45:00 hrs.
   
    21:00:00: Balanced after 2 trials
   
  WARNING: Negative pressures at 21:00:00 hrs.
  WARNING: Pump 335 open but exceeds maximum flow at 21:00:00 hrs.
   
    21:15:00: Balanced after 1 trials
   
  WARNING: Negative pressures at 21:15:00 hrs.
  WARNING: Pump 335 open but exceeds maximum flow at 21:15:00 hrs.
   
    21:30:00: Balanced after 1 trials
   
  WARNING: Negative pressures at 21:30:00 hrs.
  WARNING: Pump 335 open but exceeds maximum flow at 21:30:00 hrs.
   
    21:45:00: Balanced after 1 trials
   
  WARNING: Negative pressures at 21:45:00 hrs.
  WARNING: Pump 335 open but exceeds maximum flow at 21:45:00 hrs.
   
    22:00:00: Balanced after 2 trials
   
  WARNING: Negative pressures at 22:00:00 hrs.
  WARNING: Pump 335 open but exceeds maximum flow at 22:00:00 hrs.
   
    22:15:00: Balanced after 1 trials
   
  WARNING: Negative pressures at 22:15:00 hrs.
  WARNING: Pump 335 open but exceeds maximum flow at 22:15:00 hrs.
   
    22:30:00: Balanced after 1 trials
   
  WARNING: Negative pressures at 22:30:00 hrs.
  WARNING: Pump 335 open but exceeds maximum flow at 22:30:00 hrs.
   
    22:45:00: Balanced after 1 trials
   
  WARNING: Negative pressures at 22:45:00 hrs.
  WARNING: Pump 335 open but exceeds maximum flow at 22:45:00 hrs.
   
    23:00:00: Balanced after 2 trials
   
  WARNING: Negative pressures at 23:00:00 hrs.
  WARNING: Pump 335 open but exceeds maximum flow at 23:00:00 hrs.
   
    23:15:00: Balanced after 1 trials
   
  WARNING: Negative pressures at 23:15:00 hrs.
  WARNING: Pump 335 open but exceeds maximum flow at 23:15:00 hrs.
   
    23:30:00: Balanced after 1 trials
   
  WARNING: Negative pressures at 23:30:00 hrs.
  WARNING: Pump 335 open but exceeds maximum flow at 23:30:00 hrs.
   
    23:45:00: Balanced after 1 trials
   
  WARNING: Negative pressures at 23:45:00 hrs.
  WARNING: Pump 335 open but exceeds maximum flow at 23:45:00 hrs.
   
    24:00:00: Balanced after 2 trials
   
  WARNING: Negative pressures at 24:00:00 hrs.
  WARNING: Pump 335 open but exceeds maximum flow at 24:00:00 hrs.
   
    24:15:00: Balanced after 1 trials
   
  WARNING: Negative pressures at 24:15:00 hrs.
  WARNING: Pump 335 open but exceeds maximum flow at 24:15:00 hrs.
   
    24:30:00: Balanced after 1 trials
   
  WARNING: Negative pressures at 24:30:00 hrs.
  WARNING: Pump 335 open but exceeds maximum flow at 24:30:00 hrs.
   
    24:45:00: Balanced after 1 trials
   
  WARNING: Negative pressures at 24:45:00 hrs.
  WARNING: Pump 335 open but exceeds maximum flow at 24:45:00 hrs.
   
    25:00:00: Pump 10 changed by timer control
    25:00:00: Balanced after 5 trials
    25:00:00: Reservoir Lake is emptying
    25:00:00: Pump 10 changed from closed to open
   
  WARNING: Negative pressures at 25:00:00 hrs.
  WARNING: Pump 10 open but exceeds maximum flow at 25:00:00 hrs.
  WARNING: Pump 335 open but exceeds maximum flow at 25:00:00 hrs.
   
    25:15:00: Balanced after 1 trials
   
  WARNING: Negative pressures at 25:15:00 hrs.
  WARNING: Pump 10 open but exceeds maximum flow at 25:15:00 hrs.
  WARNING: Pump 335 open but exceeds maximum flow at 25:15:00 hrs.
   
    25:30:00: Balanced after 1 trials
   
  WARNING: Negative pressures at 25:30:00 hrs.
  WARNING: Pump 10 open but exceeds maximum flow at 25:30:00 hrs.
  WARNING: Pump 335 open but exceeds maximum flow at 25:30:00 hrs.
   
    25:45:00: Balanced after 1 trials
   
  WARNING: Negative pressures at 25:45:00 hrs.
  WARNING: Pump 10 open but exceeds maximum flow at 25:45:00 hrs.
  WARNING: Pump 335 open but exceeds maximum flow at 25:45:00 hrs.
   
    26:00:00: Balanced after 2 trials
   
  WARNING: Negative pressures at 26:00:00 hrs.
  WARNING: Pump 10 open but exceeds maximum flow at 26:00:00 hrs.
  WARNING: Pump 335 open but exceeds maximum flow at 26:00:00 hrs.
   
    26:15:00: Balanced after 1 trials
   
  WARNING: Negative pressures at 26:15:00 hrs.
  WARNING: Pump 10 open but exceeds maximum flow at 26:15:00 hrs.
  WARNING: Pump 335 open but exceeds maximum flow at 26:15:00 hrs.
   
    26:30:00: Balanced after 1 trials
   
  WARNING: Negative pressures at 26:30:00 hrs.
  WARNING: Pump 10 open but exceeds maximum flow at 26:30:00 hrs.
  WARNING: Pump 335 open but exceeds maximum flow at 26:30:00 hrs.
   
    26:45:00: Balanced after 1 trials
   
  WARNING: Negative pressures at 26:45:00 hrs.
  WARNING: Pump 10 open but exceeds maximum flow at 26:45:00 hrs.
  WARNING: Pump 335 open but exceeds maximum flow at 26:45:00 hrs.
   
    27:00:00: Balanced after 2 trials
   
  WARNING: Negative pressures at 27:00:00 hrs.
  WARNING: Pump 10 open but exceeds maximum flow at 27:00:00 hrs.
  WARNING: Pump 335 open but exceeds maximum flow at 27:00:00 hrs.
   
    27:15:00: Balanced after 1 trials
   
  WARNING: Negative pressures at 27:15:00 hrs.
  WARNING: Pump 10 open but exceeds maximum flow at 27:15:00 hrs.
  WARNING: Pump 335 open but exceeds maximum flow at 27:15:00 hrs.
   
    27:30:00: Balanced after 1 trials
   
  WARNING: Negative pressures at 27:30:00 hrs.
  WARNING: Pump 10 open but exceeds maximum flow at 27:30:00 hrs.
  WARNING: Pump 335 open but exceeds maximum flow at 27:30:00 hrs.
   
    27:45:00: Balanced after 1 trials
   
  WARNING: Negative pressures at 27:45:00 hrs.
  WARNING: Pump 10 open but exceeds maximum flow at 27:45:00 hrs.
  WARNING: Pump 335 open but exceeds maximum flow at 27:45:00 hrs.
   
    28:00:00: Balanced after 2 trials
   
  WARNING: Negative pressures at 28:00:00 hrs.
  WARNING: Pump 10 open but exceeds maximum flow at 28:00:00 hrs.
  WARNING: Pump 335 open but exceeds maximum flow at 28:00:00 hrs.
   
    28:15:00: Balanced after 1 trials
   
  WARNING: Negative pressures at 28:15:00 hrs.
  WARNING: Pump 10 open but exceeds maximum flow at 28:15:00 hrs.
  WARNING: Pump 335 open but exceeds maximum flow at 28:15:00 hrs.
   
    28:30:00: Balanced after 1 trials
   
  WARNING: Negative pressures at 28:30:00 hrs.
  WARNING: Pump 10 open but exceeds maximum flow at 28:30:00 hrs.
  WARNING: Pump 335 open but exceeds maximum flow at 28:30:00 hrs.
   
    28:45:00: Balanced after 1 trials
   
  WARNING: Negative pressures at 28:45:00 hrs.
  WARNING: Pump 10 open but exceeds maximum flow at 28:45:00 hrs.
  WARNING: Pump 335 open but exceeds maximum flow at 28:45:00 hrs.
   
    29:00:00: Balanced after 2 trials
   
  WARNING: Negative pressures at 29:00:00 hrs.
  WARNING: Pump 10 open but exceeds maximum flow at 29:00:00 hrs.
  WARNING: Pump 335 open but exceeds maximum flow at 29:00:00 hrs.
   
    29:15:00: Balanced after 1 trials
   
  WARNING: Negative pressures at 29:15:00 hrs.
  WARNING: Pump 10 open but exceeds maximum flow at 29:15:00 hrs.
  WARNING: Pump 335 open but exceeds maximum flow at 29:15:00 hrs.
   
    29:30:00: Balanced after 1 trials
   
  WARNING: Negative pressures at 29:30:00 hrs.
  WARNING: Pump 10 open but exceeds maximum flow at 29:30:00 hrs.
  WARNING: Pump 335 open but exceeds maximum flow at 29:30:00 hrs.
   
    29:45:00: Balanced after 1 trials
   
  WARNING: Negative pressures at 29:45:00 hrs.
  WARNING: Pump 10 open but exceeds maximum flow at 29:45:00 hrs.
  WARNING: Pump 335 open but exceeds maximum flow at 29:45:00 hrs.
   
    30:00:00: Balanced after 2 trials
   
  WARNING: Negative pressures at 30:00:00 hrs.
  WARNING: Pump 10 open but exceeds maximum flow at 30:00:00 hrs.
  WARNING: Pump 335 open but exceeds maximum flow at 30:00:00 hrs.
   
    30:15:00: Balanced after 1 trials
   
  WARNING: Negative pressures at 30:15:00 hrs.
  WARNING: Pump 10 open but exceeds maximum flow at 30:15:00 hrs.
  WARNING: Pump 335 open but exceeds maximum flow at 30:15:00 hrs.
   
    30:30:00: Balanced after 1 trials
   
  WARNING: Negative pressures at 30:30:00 hrs.
  WARNING: Pump 10 open but exceeds maximum flow at 30:30:00 hrs.
  WARNING: Pump 335 open but exceeds maximum flow at 30:30:00 hrs.
   
    30:45:00: Balanced after 1 trials
   
  WARNING: Negative pressures at 30:45:00 hrs.
  WARNING: Pump 10 open but exceeds maximum flow at 30:45:00 hrs.
  WARNING: Pump 335 open but exceeds maximum flow at 30:45:00 hrs.
   
    31:00:00: Balanced after 2 trials
   
  WARNING: Negative pressures at 31:00:00 hrs.
  WARNING: Pump 10 open but exceeds maximum flow at 31:00:00 hrs.
  WARNING: Pump 335 open but exceeds maximum flow at 31:00:00 hrs.
   
    31:15:00: Balanced after 1 trials
   
  WARNING: Negative pressures at 31:15:00 hrs.
  WARNING: Pump 10 open but exceeds maximum flow at 31:15:00 hrs.
  WARNING: Pump 335 open but exceeds maximum flow at 31:15:00 hrs.
   
    31:30:00: Balanced after 1 trials
   
  WARNING: Negative pressures at 31:30:00 hrs.
  WARNING: Pump 10 open but exceeds maximum flow at 31:30:00 hrs.
  WARNING: Pump 335 open but exceeds maximum flow at 31:30:00 hrs.
   
    31:45:00: Balanced after 1 trials
   
  WARNING: Negative pressures at 31:45:00 hrs.
  WARNING: Pump 10 open but exceeds maximum flow at 31:45:00 hrs.
  WARNING: Pump 335 open but exceeds maximum flow at 31:45:00 hrs.
   
    32:00:00: Balanced after 2 trials
   
  WARNING: Negative pressures at 32:00:00 hrs.
  WARNING: Pump 10 open but exceeds maximum flow at 32:00:00 hrs.
  WARNING: Pump 335 open but exceeds maximum flow at 32:00:00 hrs.
   
    32:15:00: Balanced after 1 trials
   
  WARNING: Negative pressures at 32:15:00 hrs.
  WARNING: Pump 10 open but exceeds maximum flow at 32:15:00 hrs.
  WARNING: Pump 335 open but exceeds maximum flow at 32:15:00 hrs.
   
    32:30:00: Balanced after 1 trials
   
  WARNING: Negative pressures at 32:30:00 hrs.
  WARNING: Pump 10 open but exceeds maximum flow at 32:30:00 hrs.
  WARNING: Pump 335 open but exceeds maximum flow at 32:30:00 hrs.
   
    32:45:00: Balanced after 1 trials
   
  WARNING: Negative pressures at 32:45:00 hrs.
  WARNING: Pump 10 open but exceeds maximum flow at 32:45:00 hrs.
  WARNING: Pump 335 open but exceeds maximum flow at 32:45:00 hrs.
   
    33:00:00: Balanced after 2 trials
   
  WARNING: Negative pressures at 33:00:00 hrs.
  WARNING: Pump 10 open but exceeds maximum flow at 33:00:00 hrs.
  WARNING: Pump 335 open but exceeds maximum flow at 33:00:00 hrs.
   
    33:15:00: Balanced after 1 trials
   
  WARNING: Negative pressures at 33:15:00 hrs.
  WARNING: Pump 10 open but exceeds maximum flow at 33:15:00 hrs.
  WARNING: Pump 335 open but exceeds maximum flow at 33:15:00 hrs.
   
    33:30:00: Balanced after 1 trials
   
  WARNING: Negative pressures at 33:30:00 hrs.
  WARNING: Pump 10 open but exceeds maximum flow at 33:30:00 hrs.
  WARNING: Pump 335 open but exceeds maximum flow at 33:30:00 hrs.
   
    33:45:00: Balanced after 1 trials
   
  WARNING: Negative pressures at 33:45:00 hrs.
  WARNING: Pump 10 open but exceeds maximum flow at 33:45:00 hrs.
  WARNING: Pump 335 open but exceeds maximum flow at 33:45:00 hrs.
   
    34:00:00: Balanced after 2 trials
   
  WARNING: Negative pressures at 34:00:00 hrs.
  WARNING: Pump 10 open but exceeds maximum flow at 34:00:00 hrs.
  WARNING: Pump 335 open but exceeds maximum flow at 34:00:00 hrs.
   
    34:15:00: Balanced after 1 trials
   
  WARNING: Negative pressures at 34:15:00 hrs.
  WARNING: Pump 10 open but exceeds maximum flow at 34:15:00 hrs.
  WARNING: Pump 335 open but exceeds maximum flow at 34:15:00 hrs.
   
    34:30:00: Balanced after 1 trials
   
  WARNING: Negative pressures at 34:30:00 hrs.
  WARNING: Pump 10 open but exceeds maximum flow at 34:30:00 hrs.
  WARNING: Pump 335 open but exceeds maximum flow at 34:30:00 hrs.
   
    34:45:00: Balanced after 1 trials
   
  WARNING: Negative pressures at 34:45:00 hrs.
  WARNING: Pump 10 open but exceeds maximum flow at 34:45:00 hrs.
  WARNING: Pump 335 open but exceeds maximum flow at 34:45:00 hrs.
   
    35:00:00: Balanced after 2 trials
   
  WARNING: Negative pressures at 35:00:00 hrs.
  WARNING: Pump 10 open but exceeds maximum flow at 35:00:00 hrs.
  WARNING: Pump 335 open but exceeds maximum flow at 35:00:00 hrs.
   
    35:15:00: Balanced after 1 trials
   
  WARNING: Negative pressures at 35:15:00 hrs.
  WARNING: Pump 10 open but exceeds maximum flow at 35:15:00 hrs.
  WARNING: Pump 335 open but exceeds maximum flow at 35:15:00 hrs.
   
    35:30:00: Balanced after 1 trials
   
  WARNING: Negative pressures at 35:30:00 hrs.
  WARNING: Pump 10 open but exceeds maximum flow at 35:30:00 hrs.
  WARNING: Pump 335 open but exceeds maximum flow at 35:30:00 hrs.
   
    35:45:00: Balanced after 1 trials
   
  WARNING: Negative pressures at 35:45:00 hrs.
  WARNING: Pump 10 open but exceeds maximum flow at 35:45:00 hrs.
  WARNING: Pump 335 open but exceeds maximum flow at 35:45:00 hrs.
   
    36:00:00: Balanced after 2 trials
   
  WARNING: Negative pressures at 36:00:00 hrs.
  WARNING: Pump 10 open but exceeds maximum flow at 36:00:00 hrs.
  WARNING: Pump 335 open but exceeds maximum flow at 36:00:00 hrs.
   
    36:15:00: Balanced after 1 trials
   
  WARNING: Negative pressures at 36:15:00 hrs.
  WARNING: Pump 10 open but exceeds maximum flow at 36:15:00 hrs.
  WARNING: Pump 335 open but exceeds maximum flow at 36:15:00 hrs.
   
    36:30:00: Balanced after 1 trials
   
  WARNING: Negative pressures at 36:30:00 hrs.
  WARNING: Pump 10 open but exceeds maximum flow at 36:30:00 hrs.
  WARNING: Pump 335 open but exceeds maximum flow at 36:30:00 hrs.
   
    36:45:00: Balanced after 1 trials
   
  WARNING: Negative pressures at 36:45:00 hrs.
  WARNING: Pump 10 open but exceeds maximum flow at 36:45:00 hrs.
  WARNING: Pump 335 open but exceeds maximum flow at 36:45:00 hrs.
   
    37:00:00: Balanced after 2 trials
   
  WARNING: Negative pressures at 37:00:00 hrs.
  WARNING: Pump 10 open but exceeds maximum flow at 37:00:00 hrs.
  WARNING: Pump 335 open but exceeds maximum flow at 37:00:00 hrs.
   
    37:15:00: Balanced after 1 trials
   
  WARNING: Negative pressures at 37:15:00 hrs.
  WARNING: Pump 10 open but exceeds maximum flow at 37:15:00 hrs.
  WARNING: Pump 335 open but exceeds maximum flow at 37:15:00 hrs.
   
    37:30:00: Balanced after 1 trials
   
  WARNING: Negative pressures at 37:30:00 hrs.
  WARNING: Pump 10 open but exceeds maximum flow at 37:30:00 hrs.
  WARNING: Pump 335 open but exceeds maximum flow at 37:30:00 hrs.
   
    37:45:00: Balanced after 1 trials
   
  WARNING: Negative pressures at 37:45:00 hrs.
  WARNING: Pump 10 open but exceeds maximum flow at 37:45:00 hrs.
  WARNING: Pump 335 open but exceeds maximum flow at 37:45:00 hrs.
   
    38:00:00: Balanced after 2 trials
   
  WARNING: Negative pressures at 38:00:00 hrs.
  WARNING: Pump 10 open but exceeds maximum flow at 38:00:00 hrs.
  WARNING: Pump 335 open but exceeds maximum flow at 38:00:00 hrs.
   
    38:15:00: Balanced after 1 trials
   
  WARNING: Negative pressures at 38:15:00 hrs.
  WARNING: Pump 10 open but exceeds maximum flow at 38:15:00 hrs.
  WARNING: Pump 335 open but exceeds maximum flow at 38:15:00 hrs.
   
    38:30:00: Balanced after 1 trials
   
  WARNING: Negative pressures at 38:30:00 hrs.
  WARNING: Pump 10 open but exceeds maximum flow at 38:30:00 hrs.
  WARNING: Pump 335 open but exceeds maximum flow at 38:30:00 hrs.
   
    38:45:00: Balanced after 1 trials
   
  WARNING: Negative pressures at 38:45:00 hrs.
  WARNING: Pump 10 open but exceeds maximum flow at 38:45:00 hrs.
  WARNING: Pump 335 open but exceeds maximum flow at 38:45:00 hrs.
   
    39:00:00: Pump 10 changed by timer control
    39:00:00: Balanced after 4 trials
    39:00:00: Reservoir Lake is closed
    39:00:00: Pump 10 changed from open to closed
   
  WARNING: Negative pressures at 39:00:00 hrs.
  WARNING: Pump 335 open but exceeds maximum flow at 39:00:00 hrs.
   
    39:15:00: Balanced after 1 trials
   
  WARNING: Negative pressures at 39:15:00 hrs.
  WARNING: Pump 335 open but exceeds maximum flow at 39:15:00 hrs.
   
    39:30:00: Balanced after 1 trials
   
  WARNING: Negative pressures at 39:30:00 hrs.
  WARNING: Pump 335 open but exceeds maximum flow at 39:30:00 hrs.
   
    39:45:00: Balanced after 1 trials
   
  WARNING: Negative pressures at 39:45:00 hrs.
  WARNING: Pump 335 open but exceeds maximum flow at 39:45:00 hrs.
   
    40:00:00: Balanced after 2 trials
   
  WARNING: Negative pressures at 40:00:00 hrs.
  WARNING: Pump 335 open but exceeds maximum flow at 40:00:00 hrs.
   
    40:15:00: Balanced after 1 trials
   
  WARNING: Negative pressures at 40:15:00 hrs.
  WARNING: Pump 335 open but exceeds maximum flow at 40:15:00 hrs.
   
    40:30:00: Balanced after 1 trials
   
  WARNING: Negative pressures at 40:30:00 hrs.
  WARNING: Pump 335 open but exceeds maximum flow at 40:30:00 hrs.
   
    40:45:00: Balanced after 1 trials
   
  WARNING: Negative pressures at 40:45:00 hrs.
  WARNING: Pump 335 open but exceeds maximum flow at 40:45:00 hrs.
   
    41:00:00: Balanced after 2 trials
   
  WARNING: Negative pressures at 41:00:00 hrs.
  WARNING: Pump 335 open but exceeds maximum flow at 41:00:00 hrs.
   
    41:15:00: Balanced after 1 trials
   
  WARNING: Negative pressures at 41:15:00 hrs.
  WARNING: Pump 335 open but exceeds maximum flow at 41:15:00 hrs.
   
    41:30:00: Balanced after 1 trials
   
  WARNING: Negative pressures at 41:30:00 hrs.
  WARNING: Pump 335 open but exceeds maximum flow at 41:30:00 hrs.
   
    41:45:00: Balanced after 1 trials
   
  WARNING: Negative pressures at 41:45:00 hrs.
  WARNING: Pump 335 open but exceeds maximum flow at 41:45:00 hrs.
   
    42:00:00: Balanced after 2 trials
   
  WARNING: Negative pressures at 42:00:00 hrs.
  WARNING: Pump 335 open but exceeds maximum flow at 42:00:00 hrs.
   
    42:15:00: Balanced after 1 trials
   
  WARNING: Negative pressures at 42:15:00 hrs.
  WARNING: Pump 335 open but exceeds maximum flow at 42:15:00 hrs.
   
    42:30:00: Balanced after 1 trials
   
  WARNING: Negative pressures at 42:30:00 hrs.
  WARNING: Pump 335 open but exceeds maximum flow at 42:30:00 hrs.
   
    42:45:00: Balanced after 1 trials
   
  WARNING: Negative pressures at 42:45:00 hrs.
  WARNING: Pump 335 open but exceeds maximum flow at 42:45:00 hrs.
   
    43:00:00: Balanced after 1 trials
   
  WARNING: Negative pressures at 43:00:00 hrs.
  WARNING: Pump 335 open but exceeds maximum flow at 43:00:00 hrs.
   
    43:15:00: Balanced after 1 trials
   
  WARNING: Negative pressures at 43:15:00 hrs.
  WARNING: Pump 335 open but exceeds maximum flow at 43:15:00 hrs.
   
    43:30:00: Balanced after 1 trials
   
  WARNING: Negative pressures at 43:30:00 hrs.
  WARNING: Pump 335 open but exceeds maximum flow at 43:30:00 hrs.
   
    43:45:00: Balanced after 1 trials
   
  WARNING: Negative pressures at 43:45:00 hrs.
  WARNING: Pump 335 open but exceeds maximum flow at 43:45:00 hrs.
   
    44:00:00: Balanced after 2 trials
   
  WARNING: Negative pressures at 44:00:00 hrs.
  WARNING: Pump 335 open but exceeds maximum flow at 44:00:00 hrs.
   
    44:15:00: Balanced after 1 trials
   
  WARNING: Negative pressures at 44:15:00 hrs.
  WARNING: Pump 335 open but exceeds maximum flow at 44:15:00 hrs.
   
    44:30:00: Balanced after 1 trials
   
  WARNING: Negative pressures at 44:30:00 hrs.
  WARNING: Pump 335 open but exceeds maximum flow at 44:30:00 hrs.
   
    44:45:00: Balanced after 1 trials
   
  WARNING: Negative pressures at 44:45:00 hrs.
  WARNING: Pump 335 open but exceeds maximum flow at 44:45:00 hrs.
   
    45:00:00: Balanced after 2 trials
   
  WARNING: Negative pressures at 45:00:00 hrs.
  WARNING: Pump 335 open but exceeds maximum flow at 45:00:00 hrs.
   
    45:15:00: Balanced after 1 trials
   
  WARNING: Negative pressures at 45:15:00 hrs.
  WARNING: Pump 335 open but exceeds maximum flow at 45:15:00 hrs.
   
    45:30:00: Balanced after 1 trials
   
  WARNING: Negative pressures at 45:30:00 hrs.
  WARNING: Pump 335 open but exceeds maximum flow at 45:30:00 hrs.
   
    45:45:00: Balanced after 1 trials
   
  WARNING: Negative pressures at 45:45:00 hrs.
  WARNING: Pump 335 open but exceeds maximum flow at 45:45:00 hrs.
   
    46:00:00: Balanced after 2 trials
   
  WARNING: Negative pressures at 46:00:00 hrs.
  WARNING: Pump 335 open but exceeds maximum flow at 46:00:00 hrs.
   
    46:15:00: Balanced after 1 trials
   
  WARNING: Negative pressures at 46:15:00 hrs.
  WARNING: Pump 335 open but exceeds maximum flow at 46:15:00 hrs.
   
    46:30:00: Balanced after 1 trials
   
  WARNING: Negative pressures at 46:30:00 hrs.
  WARNING: Pump 335 open but exceeds maximum flow at 46:30:00 hrs.
   
    46:45:00: Balanced after 1 trials
   
  WARNING: Negative pressures at 46:45:00 hrs.
  WARNING: Pump 335 open but exceeds maximum flow at 46:45:00 hrs.
   
    47:00:00: Balanced after 2 trials
   
  WARNING: Negative pressures at 47:00:00 hrs.
  WARNING: Pump 335 open but exceeds maximum flow at 47:00:00 hrs.
   
    47:15:00: Balanced after 1 trials
   
  WARNING: Negative pressures at 47:15:00 hrs.
  WARNING: Pump 335 open but exceeds maximum flow at 47:15:00 hrs.
   
    47:30:00: Balanced after 1 trials
   
  WARNING: Negative pressures at 47:30:00 hrs.
  WARNING: Pump 335 open but exceeds maximum flow at 47:30:00 hrs.
   
    47:45:00: Balanced after 1 trials
   
  WARNING: Negative pressures at 47:45:00 hrs.
  WARNING: Pump 335 open but exceeds maximum flow at 47:45:00 hrs.
   
    48:00:00: Balanced after 2 trials
   
  WARNING: Negative pressures at 48:00:00 hrs.
  WARNING: Pump 335 open but exceeds maximum flow at 48:00:00 hrs.
   
    48:15:00: Balanced after 1 trials
   
  WARNING: Negative pressures at 48:15:00 hrs.
  WARNING: Pump 335 open but exceeds maximum flow at 48:15:00 hrs.
   
    48:30:00: Balanced after 1 trials
   
  WARNING: Negative pressures at 48:30:00 hrs.
  WARNING: Pump 335 open but exceeds maximum flow at 48:30:00 hrs.
   
    48:45:00: Balanced after 1 trials
   
  WARNING: Negative pressures at 48:45:00 hrs.
  WARNING: Pump 335 open but exceeds maximum flow at 48:45:00 hrs.
   
    49:00:00: Pump 10 changed by timer control
    49:00:00: Balanced after 5 trials
    49:00:00: Reservoir Lake is emptying
    49:00:00: Pump 10 changed from closed to open
   
  WARNING: Negative pressures at 49:00:00 hrs.
  WARNING: Pump 10 open but exceeds maximum flow at 49:00:00 hrs.
  WARNING: Pump 335 open but exceeds maximum flow at 49:00:00 hrs.
   
    49:15:00: Balanced after 1 trials
   
  WARNING: Negative pressures at 49:15:00 hrs.
  WARNING: Pump 10 open but exceeds maximum flow at 49:15:00 hrs.
  WARNING: Pump 335 open but exceeds maximum flow at 49:15:00 hrs.
   
    49:30:00: Balanced after 1 trials
   
  WARNING: Negative pressures at 49:30:00 hrs.
  WARNING: Pump 10 open but exceeds maximum flow at 49:30:00 hrs.
  WARNING: Pump 335 open but exceeds maximum flow at 49:30:00 hrs.
   
    49:45:00: Balanced after 1 trials
   
  WARNING: Negative pressures at 49:45:00 hrs.
  WARNING: Pump 10 open but exceeds maximum flow at 49:45:00 hrs.
  WARNING: Pump 335 open but exceeds maximum flow at 49:45:00 hrs.
   
    50:00:00: Balanced after 2 trials
   
  WARNING: Negative pressures at 50:00:00 hrs.
  WARNING: Pump 10 open but exceeds maximum flow at 50:00:00 hrs.
  WARNING: Pump 335 open but exceeds maximum flow at 50:00:00 hrs.
   
    50:15:00: Balanced after 1 trials
   
  WARNING: Negative pressures at 50:15:00 hrs.
  WARNING: Pump 10 open but exceeds maximum flow at 50:15:00 hrs.
  WARNING: Pump 335 open but exceeds maximum flow at 50:15:00 hrs.
   
    50:30:00: Balanced after 1 trials
   
  WARNING: Negative pressures at 50:30:00 hrs.
  WARNING: Pump 10 open but exceeds maximum flow at 50:30:00 hrs.
  WARNING: Pump 335 open but exceeds maximum flow at 50:30:00 hrs.
   
    50:45:00: Balanced after 1 trials
   
  WARNING: Negative pressures at 50:45:00 hrs.
  WARNING: Pump 10 open but exceeds maximum flow at 50:45:00 hrs.
  WARNING: Pump 335 open but exceeds maximum flow at 50:45:00 hrs.
   
    51:00:00: Balanced after 2 trials
   
  WARNING: Negative pressures at 51:00:00 hrs.
  WARNING: Pump 10 open but exceeds maximum flow at 51:00:00 hrs.
  WARNING: Pump 335 open but exceeds maximum flow at 51:00:00 hrs.
   
    51:15:00: Balanced after 1 trials
   
  WARNING: Negative pressures at 51:15:00 hrs.
  WARNING: Pump 10 open but exceeds maximum flow at 51:15:00 hrs.
  WARNING: Pump 335 open but exceeds maximum flow at 51:15:00 hrs.
   
    51:30:00: Balanced after 1 trials
   
  WARNING: Negative pressures at 51:30:00 hrs.
  WARNING: Pump 10 open but exceeds maximum flow at 51:30:00 hrs.
  WARNING: Pump 335 open but exceeds maximum flow at 51:30:00 hrs.
   
    51:45:00: Balanced after 1 trials
   
  WARNING: Negative pressures at 51:45:00 hrs.
  WARNING: Pump 10 open but exceeds maximum flow at 51:45:00 hrs.
  WARNING: Pump 335 open but exceeds maximum flow at 51:45:00 hrs.
   
    52:00:00: Balanced after 2 trials
   
  WARNING: Negative pressures at 52:00:00 hrs.
  WARNING: Pump 10 open but exceeds maximum flow at 52:00:00 hrs.
  WARNING: Pump 335 open but exceeds maximum flow at 52:00:00 hrs.
   
    52:15:00: Balanced after 1 trials
   
  WARNING: Negative pressures at 52:15:00 hrs.
  WARNING: Pump 10 open but exceeds maximum flow at 52:15:00 hrs.
  WARNING: Pump 335 open but exceeds maximum flow at 52:15:00 hrs.
   
    52:30:00: Balanced after 1 trials
   
  WARNING: Negative pressures at 52:30:00 hrs.
  WARNING: Pump 10 open but exceeds maximum flow at 52:30:00 hrs.
  WARNING: Pump 335 open but exceeds maximum flow at 52:30:00 hrs.
   
    52:45:00: Balanced after 1 trials
   
  WARNING: Negative pressures at 52:45:00 hrs.
  WARNING: Pump 10 open but exceeds maximum flow at 52:45:00 hrs.
  WARNING: Pump 335 open but exceeds maximum flow at 52:45:00 hrs.
   
    53:00:00: Balanced after 2 trials
   
  WARNING: Negative pressures at 53:00:00 hrs.
  WARNING: Pump 10 open but exceeds maximum flow at 53:00:00 hrs.
  WARNING: Pump 335 open but exceeds maximum flow at 53:00:00 hrs.
   
    53:15:00: Balanced after 1 trials
   
  WARNING: Negative pressures at 53:15:00 hrs.
  WARNING: Pump 10 open but exceeds maximum flow at 53:15:00 hrs.
  WARNING: Pump 335 open but exceeds maximum flow at 53:15:00 hrs.
   
    53:30:00: Balanced after 1 trials
   
  WARNING: Negative pressures at 53:30:00 hrs.
  WARNING: Pump 10 open but exceeds maximum flow at 53:30:00 hrs.
  WARNING: Pump 335 open but exceeds maximum flow at 53:30:00 hrs.
   
    53:45:00: Balanced after 1 trials
   
  WARNING: Negative pressures at 53:45:00 hrs.
  WARNING: Pump 10 open but exceeds maximum flow at 53:45:00 hrs.
  WARNING: Pump 335 open but exceeds maximum flow at 53:45:00 hrs.
   
    54:00:00: Balanced after 2 trials
   
  WARNING: Negative pressures at 54:00:00 hrs.
  WARNING: Pump 10 open but exceeds maximum flow at 54:00:00 hrs.
  WARNING: Pump 335 open but exceeds maximum flow at 54:00:00 hrs.
   
    54:15:00: Balanced after 1 trials
   
  WARNING: Negative pressures at 54:15:00 hrs.
  WARNING: Pump 10 open but exceeds maximum flow at 54:15:00 hrs.
  WARNING: Pump 335 open but exceeds maximum flow at 54:15:00 hrs.
   
    54:30:00: Balanced after 1 trials
   
  WARNING: Negative pressures at 54:30:00 hrs.
  WARNING: Pump 10 open but exceeds maximum flow at 54:30:00 hrs.
  WARNING: Pump 335 open but exceeds maximum flow at 54:30:00 hrs.
   
    54:45:00: Balanced after 1 trials
   
  WARNING: Negative pressures at 54:45:00 hrs.
  WARNING: Pump 10 open but exceeds maximum flow at 54:45:00 hrs.
  WARNING: Pump 335 open but exceeds maximum flow at 54:45:00 hrs.
   
    55:00:00: Balanced after 2 trials
   
  WARNING: Negative pressures at 55:00:00 hrs.
  WARNING: Pump 10 open but exceeds maximum flow at 55:00:00 hrs.
  WARNING: Pump 335 open but exceeds maximum flow at 55:00:00 hrs.
   
    55:15:00: Balanced after 1 trials
   
  WARNING: Negative pressures at 55:15:00 hrs.
  WARNING: Pump 10 open but exceeds maximum flow at 55:15:00 hrs.
  WARNING: Pump 335 open but exceeds maximum flow at 55:15:00 hrs.
   
    55:30:00: Balanced after 1 trials
   
  WARNING: Negative pressures at 55:30:00 hrs.
  WARNING: Pump 10 open but exceeds maximum flow at 55:30:00 hrs.
  WARNING: Pump 335 open but exceeds maximum flow at 55:30:00 hrs.
   
    55:45:00: Balanced after 1 trials
   
  WARNING: Negative pressures at 55:45:00 hrs.
  WARNING: Pump 10 open but exceeds maximum flow at 55:45:00 hrs.
  WARNING: Pump 335 open but exceeds maximum flow at 55:45:00 hrs.
   
    56:00:00: Balanced after 2 trials
   
  WARNING: Negative pressures at 56:00:00 hrs.
  WARNING: Pump 10 open but exceeds maximum flow at 56:00:00 hrs.
  WARNING: Pump 335 open but exceeds maximum flow at 56:00:00 hrs.
   
    56:15:00: Balanced after 1 trials
   
  WARNING: Negative pressures at 56:15:00 hrs.
  WARNING: Pump 10 open but exceeds maximum flow at 56:15:00 hrs.
  WARNING: Pump 335 open but exceeds maximum flow at 56:15:00 hrs.
   
    56:30:00: Balanced after 1 trials
   
  WARNING: Negative pressures at 56:30:00 hrs.
  WARNING: Pump 10 open but exceeds maximum flow at 56:30:00 hrs.
  WARNING: Pump 335 open but exceeds maximum flow at 56:30:00 hrs.
   
    56:45:00: Balanced after 1 trials
   
  WARNING: Negative pressures at 56:45:00 hrs.
  WARNING: Pump 10 open but exceeds maximum flow at 56:45:00 hrs.
  WARNING: Pump 335 open but exceeds maximum flow at 56:45:00 hrs.
   
    57:00:00: Balanced after 2 trials
   
  WARNING: Negative pressures at 57:00:00 hrs.
  WARNING: Pump 10 open but exceeds maximum flow at 57:00:00 hrs.
  WARNING: Pump 335 open but exceeds maximum flow at 57:00:00 hrs.
   
    57:15:00: Balanced after 1 trials
   
  WARNING: Negative pressures at 57:15:00 hrs.
  WARNING: Pump 10 open but exceeds maximum flow at 57:15:00 hrs.
  WARNING: Pump 335 open but exceeds maximum flow at 57:15:00 hrs.
   
    57:30:00: Balanced after 1 trials
   
  WARNING: Negative pressures at 57:30:00 hrs.
  WARNING: Pump 10 open but exceeds maximum flow at 57:30:00 hrs.
  WARNING: Pump 335 open but exceeds maximum flow at 57:30:00 hrs.
   
    57:45:00: Balanced after 1 trials
   
  WARNING: Negative pressures at 57:45:00 hrs.
  WARNING: Pump 10 open but exceeds maximum flow at 57:45:00 hrs.
  WARNING: Pump 335 open but exceeds maximum flow at 57:45:00 hrs.
   
    58:00:00: Balanced after 2 trials
   
  WARNING: Negative pressures at 58:00:00 hrs.
  WARNING: Pump 10 open but exceeds maximum flow at 58:00:00 hrs.
  WARNING: Pump 335 open but exceeds maximum flow at 58:00:00 hrs.
   
    58:15:00: Balanced after 1 trials
   
  WARNING: Negative pressures at 58:15:00 hrs.
  WARNING: Pump 10 open but exceeds maximum flow at 58:15:00 hrs.
  WARNING: Pump 335 open but exceeds maximum flow at 58:15:00 hrs.
   
    58:30:00: Balanced after 1 trials
   
  WARNING: Negative pressures at 58:30:00 hrs.
  WARNING: Pump 10 open but exceeds maximum flow at 58:30:00 hrs.
  WARNING: Pump 335 open but exceeds maximum flow at 58:30:00 hrs.
   
    58:45:00: Balanced after 1 trials
   
  WARNING: Negative pressures at 58:45:00 hrs.
  WARNING: Pump 10 open but exceeds maximum flow at 58:45:00 hrs.
  WARNING: Pump 335 open but exceeds maximum flow at 58:45:00 hrs.
   
    59:00:00: Balanced after 2 trials
   
  WARNING: Negative pressures at 59:00:00 hrs.
  WARNING: Pump 10 open but exceeds maximum flow at 59:00:00 hrs.
  WARNING: Pump 335 open but exceeds maximum flow at 59:00:00 hrs.
   
    59:15:00: Balanced after 1 trials
   
  WARNING: Negative pressures at 59:15:00 hrs.
  WARNING: Pump 10 open but exceeds maximum flow at 59:15:00 hrs.
  WARNING: Pump 335 open but exceeds maximum flow at 59:15:00 hrs.
   
    59:30:00: Balanced after 1 trials
   
  WARNING: Negative pressures at 59:30:00 hrs.
  WARNING: Pump 10 open but exceeds maximum flow at 59:30:00 hrs.
  WARNING: Pump 335 open but exceeds maximum flow at 59:30:00 hrs.
   
    59:45:00: Balanced after 1 trials
   
  WARNING: Negative pressures at 59:45:00 hrs.
  WARNING: Pump 10 open but exceeds maximum flow at 59:45:00 hrs.
  WARNING: Pump 335 open but exceeds maximum flow at 59:45:00 hrs.
   
    60:00:00: Balanced after 2 trials
   
  WARNING: Negative pressures at 60:00:00 hrs.
  WARNING: Pump 10 open but exceeds maximum flow at 60:00:00 hrs.
  WARNING: Pump 335 open but exceeds maximum flow at 60:00:00 hrs.
   
    60:15:00: Balanced after 1 trials
   
  WARNING: Negative pressures at 60:15:00 hrs.
  WARNING: Pump 10 open but exceeds maximum flow at 60:15:00 hrs.
  WARNING: Pump 335 open but exceeds maximum flow at 60:15:00 hrs.
   
    60:30:00: Balanced after 1 trials
   
  WARNING: Negative pressures at 60:30:00 hrs.
  WARNING: Pump 10 open but exceeds maximum flow at 60:30:00 hrs.
  WARNING: Pump 335 open but exceeds maximum flow at 60:30:00 hrs.
   
    60:45:00: Balanced after 1 trials
   
  WARNING: Negative pressures at 60:45:00 hrs.
  WARNING: Pump 10 open but exceeds maximum flow at 60:45:00 hrs.
  WARNING: Pump 335 open but exceeds maximum flow at 60:45:00 hrs.
   
    61:00:00: Balanced after 2 trials
   
  WARNING: Negative pressures at 61:00:00 hrs.
  WARNING: Pump 10 open but exceeds maximum flow at 61:00:00 hrs.
  WARNING: Pump 335 open but exceeds maximum flow at 61:00:00 hrs.
   
    61:15:00: Balanced after 1 trials
   
  WARNING: Negative pressures at 61:15:00 hrs.
  WARNING: Pump 10 open but exceeds maximum flow at 61:15:00 hrs.
  WARNING: Pump 335 open but exceeds maximum flow at 61:15:00 hrs.
   
    61:30:00: Balanced after 1 trials
   
  WARNING: Negative pressures at 61:30:00 hrs.
  WARNING: Pump 10 open but exceeds maximum flow at 61:30:00 hrs.
  WARNING: Pump 335 open but exceeds maximum flow at 61:30:00 hrs.
   
    61:45:00: Balanced after 1 trials
   
  WARNING: Negative pressures at 61:45:00 hrs.
  WARNING: Pump 10 open but exceeds maximum flow at 61:45:00 hrs.
  WARNING: Pump 335 open but exceeds maximum flow at 61:45:00 hrs.
   
    62:00:00: Balanced after 2 trials
   
  WARNING: Negative pressures at 62:00:00 hrs.
  WARNING: Pump 10 open but exceeds maximum flow at 62:00:00 hrs.
  WARNING: Pump 335 open but exceeds maximum flow at 62:00:00 hrs.
   
    62:15:00: Balanced after 1 trials
   
  WARNING: Negative pressures at 62:15:00 hrs.
  WARNING: Pump 10 open but exceeds maximum flow at 62:15:00 hrs.
  WARNING: Pump 335 open but exceeds maximum flow at 62:15:00 hrs.
   
    62:30:00: Balanced after 1 trials
   
  WARNING: Negative pressures at 62:30:00 hrs.
  WARNING: Pump 10 open but exceeds maximum flow at 62:30:00 hrs.
  WARNING: Pump 335 open but exceeds maximum flow at 62:30:00 hrs.
   
    62:45:00: Balanced after 1 trials
   
  WARNING: Negative pressures at 62:45:00 hrs.
  WARNING: Pump 10 open but exceeds maximum flow at 62:45:00 hrs.
  WARNING: Pump 335 open but exceeds maximum flow at 62:45:00 hrs.
   
    63:00:00: Pump 10 changed by timer control
    63:00:00: Balanced after 4 trials
    63:00:00: Reservoir Lake is closed
    63:00:00: Pump 10 changed from open to closed
   
  WARNING: Negative pressures at 63:00:00 hrs.
  WARNING: Pump 335 open but exceeds maximum flow at 63:00:00 hrs.
   
    63:15:00: Balanced after 1 trials
   
  WARNING: Negative pressures at 63:15:00 hrs.
  WARNING: Pump 335 open but exceeds maximum flow at 63:15:00 hrs.
   
    63:30:00: Balanced after 1 trials
   
  WARNING: Negative pressures at 63:30:00 hrs.
  WARNING: Pump 335 open but exceeds maximum flow at 63:30:00 hrs.
   
    63:45:00: Balanced after 1 trials
   
  WARNING: Negative pressures at 63:45:00 hrs.
  WARNING: Pump 335 open but exceeds maximum flow at 63:45:00 hrs.
   
    64:00:00: Balanced after 2 trials
   
  WARNING: Negative pressures at 64:00:00 hrs.
  WARNING: Pump 335 open but exceeds maximum flow at 64:00:00 hrs.
   
    64:15:00: Balanced after 1 trials
   
  WARNING: Negative pressures at 64:15:00 hrs.
  WARNING: Pump 335 open but exceeds maximum flow at 64:15:00 hrs.
   
    64:30:00: Balanced after 1 trials
   
  WARNING: Negative pressures at 64:30:00 hrs.
  WARNING: Pump 335 open but exceeds maximum flow at 64:30:00 hrs.
   
    64:45:00: Balanced after 1 trials
   
  WARNING: Negative pressures at 64:45:00 hrs.
  WARNING: Pump 335 open but exceeds maximum flow at 64:45:00 hrs.
   
    65:00:00: Balanced after 2 trials
   
  WARNING: Negative pressures at 65:00:00 hrs.
  WARNING: Pump 335 open but exceeds maximum flow at 65:00:00 hrs.
   
    65:15:00: Balanced after 1 trials
   
  WARNING: Negative pressures at 65:15:00 hrs.
  WARNING: Pump 335 open but exceeds maximum flow at 65:15:00 hrs.
   
    65:30:00: Balanced after 1 trials
   
  WARNING: Negative pressures at 65:30:00 hrs.
  WARNING: Pump 335 open but exceeds maximum flow at 65:30:00 hrs.
   
    65:45:00: Balanced after 1 trials
   
  WARNING: Negative pressures at 65:45:00 hrs.
  WARNING: Pump 335 open but exceeds maximum flow at 65:45:00 hrs.
   
    66:00:00: Balanced after 2 trials
   
  WARNING: Negative pressures at 66:00:00 hrs.
  WARNING: Pump 335 open but exceeds maximum flow at 66:00:00 hrs.
   
    66:15:00: Balanced after 1 trials
   
  WARNING: Negative pressures at 66:15:00 hrs.
  WARNING: Pump 335 open but exceeds maximum flow at 66:15:00 hrs.
   
    66:30:00: Balanced after 1 trials
   
  WARNING: Negative pressures at 66:30:00 hrs.
  WARNING: Pump 335 open but exceeds maximum flow at 66:30:00 hrs.
   
    66:45:00: Balanced after 1 trials
   
  WARNING: Negative pressures at 66:45:00 hrs.
  WARNING: Pump 335 open but exceeds maximum flow at 66:45:00 hrs.
   
    67:00:00: Balanced after 1 trials
   
  WARNING: Negative pressures at 67:00:00 hrs.
  WARNING: Pump 335 open but exceeds maximum flow at 67:00:00 hrs.
   
    67:15:00: Balanced after 1 trials
   
  WARNING: Negative pressures at 67:15:00 hrs.
  WARNING: Pump 335 open but exceeds maximum flow at 67:15:00 hrs.
   
    67:30:00: Balanced after 1 trials
   
  WARNING: Negative pressures at 67:30:00 hrs.
  WARNING: Pump 335 open but exceeds maximum flow at 67:30:00 hrs.
   
    67:45:00: Balanced after 1 trials
   
  WARNING: Negative pressures at 67:45:00 hrs.
  WARNING: Pump 335 open but exceeds maximum flow at 67:45:00 hrs.
   
    68:00:00: Balanced after 2 trials
   
  WARNING: Negative pressures at 68:00:00 hrs.
  WARNING: Pump 335 open but exceeds maximum flow at 68:00:00 hrs.
   
    68:15:00: Balanced after 1 trials
   
  WARNING: Negative pressures at 68:15:00 hrs.
  WARNING: Pump 335 open but exceeds maximum flow at 68:15:00 hrs.
   
    68:30:00: Balanced after 1 trials
   
  WARNING: Negative pressures at 68:30:00 hrs.
  WARNING: Pump 335 open but exceeds maximum flow at 68:30:00 hrs.
   
    68:45:00: Balanced after 1 trials
   
  WARNING: Negative pressures at 68:45:00 hrs.
  WARNING: Pump 335 open but exceeds maximum flow at 68:45:00 hrs.
   
    69:00:00: Balanced after 2 trials
   
  WARNING: Negative pressures at 69:00:00 hrs.
  WARNING: Pump 335 open but exceeds maximum flow at 69:00:00 hrs.
   
    69:15:00: Balanced after 1 trials
   
  WARNING: Negative pressures at 69:15:00 hrs.
  WARNING: Pump 335 open but exceeds maximum flow at 69:15:00 hrs.
   
    69:30:00: Balanced after 1 trials
   
  WARNING: Negative pressures at 69:30:00 hrs.
  WARNING: Pump 335 open but exceeds maximum flow at 69:30:00 hrs.
   
    69:45:00: Balanced after 1 trials
   
  WARNING: Negative pressures at 69:45:00 hrs.
  WARNING: Pump 335 open but exceeds maximum flow at 69:45:00 hrs.
   
    70:00:00: Balanced after 2 trials
   
  WARNING: Negative pressures at 70:00:00 hrs.
  WARNING: Pump 335 open but exceeds maximum flow at 70:00:00 hrs.
   
    70:15:00: Balanced after 1 trials
   
  WARNING: Negative pressures at 70:15:00 hrs.
  WARNING: Pump 335 open but exceeds maximum flow at 70:15:00 hrs.
   
    70:30:00: Balanced after 1 trials
   
  WARNING: Negative pressures at 70:30:00 hrs.
  WARNING: Pump 335 open but exceeds maximum flow at 70:30:00 hrs.
   
    70:45:00: Balanced after 1 trials
   
  WARNING: Negative pressures at 70:45:00 hrs.
  WARNING: Pump 335 open but exceeds maximum flow at 70:45:00 hrs.
   
    71:00:00: Balanced after 2 trials
   
  WARNING: Negative pressures at 71:00:00 hrs.
  WARNING: Pump 335 open but exceeds maximum flow at 71:00:00 hrs.
   
    71:15:00: Balanced after 1 trials
   
  WARNING: Negative pressures at 71:15:00 hrs.
  WARNING: Pump 335 open but exceeds maximum flow at 71:15:00 hrs.
   
    71:30:00: Balanced after 1 trials
   
  WARNING: Negative pressures at 71:30:00 hrs.
  WARNING: Pump 335 open but exceeds maximum flow at 71:30:00 hrs.
   
    71:45:00: Balanced after 1 trials
   
  WARNING: Negative pressures at 71:45:00 hrs.
  WARNING: Pump 335 open but exceeds maximum flow at 71:45:00 hrs.
   
    72:00:00: Balanced after 2 trials
   
  WARNING: Negative pressures at 72:00:00 hrs.
  WARNING: Pump 335 open but exceeds maximum flow at 72:00:00 hrs.
   
    72:15:00: Balanced after 1 trials
   
  WARNING: Negative pressures at 72:15:00 hrs.
  WARNING: Pump 335 open but exceeds maximum flow at 72:15:00 hrs.
   
    72:30:00: Balanced after 1 trials
   
  WARNING: Negative pressures at 72:30:00 hrs.
  WARNING: Pump 335 open but exceeds maximum flow at 72:30:00 hrs.
   
    72:45:00: Balanced after 1 trials
   
  WARNING: Negative pressures at 72:45:00 hrs.
  WARNING: Pump 335 open but exceeds maximum flow at 72:45:00 hrs.
   
    73:00:00: Pump 10 changed by timer control
    73:00:00: Balanced after 5 trials
    73:00:00: Reservoir Lake is emptying
    73:00:00: Pump 10 changed from closed to open
   
  WARNING: Negative pressures at 73:00:00 hrs.
  WARNING: Pump 10 open but exceeds maximum flow at 73:00:00 hrs.
  WARNING: Pump 335 open but exceeds maximum flow at 73:00:00 hrs.
   
    73:15:00: Balanced after 1 trials
   
  WARNING: Negative pressures at 73:15:00 hrs.
  WARNING: Pump 10 open but exceeds maximum flow at 73:15:00 hrs.
  WARNING: Pump 335 open but exceeds maximum flow at 73:15:00 hrs.
   
    73:30:00: Balanced after 1 trials
   
  WARNING: Negative pressures at 73:30:00 hrs.
  WARNING: Pump 10 open but exceeds maximum flow at 73:30:00 hrs.
  WARNING: Pump 335 open but exceeds maximum flow at 73:30:00 hrs.
   
    73:45:00: Balanced after 1 trials
   
  WARNING: Negative pressures at 73:45:00 hrs.
  WARNING: Pump 10 open but exceeds maximum flow at 73:45:00 hrs.
  WARNING: Pump 335 open but exceeds maximum flow at 73:45:00 hrs.
   
    74:00:00: Balanced after 2 trials
   
  WARNING: Negative pressures at 74:00:00 hrs.
  WARNING: Pump 10 open but exceeds maximum flow at 74:00:00 hrs.
  WARNING: Pump 335 open but exceeds maximum flow at 74:00:00 hrs.
   
    74:15:00: Balanced after 1 trials
   
  WARNING: Negative pressures at 74:15:00 hrs.
  WARNING: Pump 10 open but exceeds maximum flow at 74:15:00 hrs.
  WARNING: Pump 335 open but exceeds maximum flow at 74:15:00 hrs.
   
    74:30:00: Balanced after 1 trials
   
  WARNING: Negative pressures at 74:30:00 hrs.
  WARNING: Pump 10 open but exceeds maximum flow at 74:30:00 hrs.
  WARNING: Pump 335 open but exceeds maximum flow at 74:30:00 hrs.
   
    74:45:00: Balanced after 1 trials
   
  WARNING: Negative pressures at 74:45:00 hrs.
  WARNING: Pump 10 open but exceeds maximum flow at 74:45:00 hrs.
  WARNING: Pump 335 open but exceeds maximum flow at 74:45:00 hrs.
   
    75:00:00: Balanced after 2 trials
   
  WARNING: Negative pressures at 75:00:00 hrs.
  WARNING: Pump 10 open but exceeds maximum flow at 75:00:00 hrs.
  WARNING: Pump 335 open but exceeds maximum flow at 75:00:00 hrs.
   
    75:15:00: Balanced after 1 trials
   
  WARNING: Negative pressures at 75:15:00 hrs.
  WARNING: Pump 10 open but exceeds maximum flow at 75:15:00 hrs.
  WARNING: Pump 335 open but exceeds maximum flow at 75:15:00 hrs.
   
    75:30:00: Balanced after 1 trials
   
  WARNING: Negative pressures at 75:30:00 hrs.
  WARNING: Pump 10 open but exceeds maximum flow at 75:30:00 hrs.
  WARNING: Pump 335 open but exceeds maximum flow at 75:30:00 hrs.
   
    75:45:00: Balanced after 1 trials
   
  WARNING: Negative pressures at 75:45:00 hrs.
  WARNING: Pump 10 open but exceeds maximum flow at 75:45:00 hrs.
  WARNING: Pump 335 open but exceeds maximum flow at 75:45:00 hrs.
   
    76:00:00: Balanced after 2 trials
   
  WARNING: Negative pressures at 76:00:00 hrs.
  WARNING: Pump 10 open but exceeds maximum flow at 76:00:00 hrs.
  WARNING: Pump 335 open but exceeds maximum flow at 76:00:00 hrs.
   
    76:15:00: Balanced after 1 trials
   
  WARNING: Negative pressures at 76:15:00 hrs.
  WARNING: Pump 10 open but exceeds maximum flow at 76:15:00 hrs.
  WARNING: Pump 335 open but exceeds maximum flow at 76:15:00 hrs.
   
    76:30:00: Balanced after 1 trials
   
  WARNING: Negative pressures at 76:30:00 hrs.
  WARNING: Pump 10 open but exceeds maximum flow at 76:30:00 hrs.
  WARNING: Pump 335 open but exceeds maximum flow at 76:30:00 hrs.
   
    76:45:00: Balanced after 1 trials
   
  WARNING: Negative pressures at 76:45:00 hrs.
  WARNING: Pump 10 open but exceeds maximum flow at 76:45:00 hrs.
  WARNING: Pump 335 open but exceeds maximum flow at 76:45:00 hrs.
   
    77:00:00: Balanced after 2 trials
   
  WARNING: Negative pressures at 77:00:00 hrs.
  WARNING: Pump 10 open but exceeds maximum flow at 77:00:00 hrs.
  WARNING: Pump 335 open but exceeds maximum flow at 77:00:00 hrs.
   
    77:15:00: Balanced after 1 trials
   
  WARNING: Negative pressures at 77:15:00 hrs.
  WARNING: Pump 10 open but exceeds maximum flow at 77:15:00 hrs.
  WARNING: Pump 335 open but exceeds maximum flow at 77:15:00 hrs.
   
    77:30:00: Balanced after 1 trials
   
  WARNING: Negative pressures at 77:30:00 hrs.
  WARNING: Pump 10 open but exceeds maximum flow at 77:30:00 hrs.
  WARNING: Pump 335 open but exceeds maximum flow at 77:30:00 hrs.
   
    77:45:00: Balanced after 1 trials
   
  WARNING: Negative pressures at 77:45:00 hrs.
  WARNING: Pump 10 open but exceeds maximum flow at 77:45:00 hrs.
  WARNING: Pump 335 open but exceeds maximum flow at 77:45:00 hrs.
   
    78:00:00: Balanced after 2 trials
   
  WARNING: Negative pressures at 78:00:00 hrs.
  WARNING: Pump 10 open but exceeds maximum flow at 78:00:00 hrs.
  WARNING: Pump 335 open but exceeds maximum flow at 78:00:00 hrs.
   
    78:15:00: Balanced after 1 trials
   
  WARNING: Negative pressures at 78:15:00 hrs.
  WARNING: Pump 10 open but exceeds maximum flow at 78:15:00 hrs.
  WARNING: Pump 335 open but exceeds maximum flow at 78:15:00 hrs.
   
    78:30:00: Balanced after 1 trials
   
  WARNING: Negative pressures at 78:30:00 hrs.
  WARNING: Pump 10 open but exceeds maximum flow at 78:30:00 hrs.
  WARNING: Pump 335 open but exceeds maximum flow at 78:30:00 hrs.
   
    78:45:00: Balanced after 1 trials
   
  WARNING: Negative pressures at 78:45:00 hrs.
  WARNING: Pump 10 open but exceeds maximum flow at 78:45:00 hrs.
  WARNING: Pump 335 open but exceeds maximum flow at 78:45:00 hrs.
   
    79:00:00: Balanced after 2 trials
   
  WARNING: Negative pressures at 79:00:00 hrs.
  WARNING: Pump 10 open but exceeds maximum flow at 79:00:00 hrs.
  WARNING: Pump 335 open but exceeds maximum flow at 79:00:00 hrs.
   
    79:15:00: Balanced after 1 trials
   
  WARNING: Negative pressures at 79:15:00 hrs.
  WARNING: Pump 10 open but exceeds maximum flow at 79:15:00 hrs.
  WARNING: Pump 335 open but exceeds maximum flow at 79:15:00 hrs.
   
    79:30:00: Balanced after 1 trials
   
  WARNING: Negative pressures at 79:30:00 hrs.
  WARNING: Pump 10 open but exceeds maximum flow at 79:30:00 hrs.
  WARNING: Pump 335 open but exceeds maximum flow at 79:30:00 hrs.
   
    79:45:00: Balanced after 1 trials
   
  WARNING: Negative pressures at 79:45:00 hrs.
  WARNING: Pump 10 open but exceeds maximum flow at 79:45:00 hrs.
  WARNING: Pump 335 open but exceeds maximum flow at 79:45:00 hrs.
   
    80:00:00: Balanced after 2 trials
   
  WARNING: Negative pressures at 80:00:00 hrs.
  WARNING: Pump 10 open but exceeds maximum flow at 80:00:00 hrs.
  WARNING: Pump 335 open but exceeds maximum flow at 80:00:00 hrs.
   
    80:15:00: Balanced after 1 trials
   
  WARNING: Negative pressures at 80:15:00 hrs.
  WARNING: Pump 10 open but exceeds maximum flow at 80:15:00 hrs.
  WARNING: Pump 335 open but exceeds maximum flow at 80:15:00 hrs.
   
    80:30:00: Balanced after 1 trials
   
  WARNING: Negative pressures at 80:30:00 hrs.
  WARNING: Pump 10 open but exceeds maximum flow at 80:30:00 hrs.
  WARNING: Pump 335 open but exceeds maximum flow at 80:30:00 hrs.
   
    80:45:00: Balanced after 1 trials
   
  WARNING: Negative pressures at 80:45:00 hrs.
  WARNING: Pump 10 open but exceeds maximum flow at 80:45:00 hrs.
  WARNING: Pump 335 open but exceeds maximum flow at 80:45:00 hrs.
   
    81:00:00: Balanced after 2 trials
   
  WARNING: Negative pressures at 81:00:00 hrs.
  WARNING: Pump 10 open but exceeds maximum flow at 81:00:00 hrs.
  WARNING: Pump 335 open but exceeds maximum flow at 81:00:00 hrs.
   
    81:15:00: Balanced after 1 trials
   
  WARNING: Negative pressures at 81:15:00 hrs.
  WARNING: Pump 10 open but exceeds maximum flow at 81:15:00 hrs.
  WARNING: Pump 335 open but exceeds maximum flow at 81:15:00 hrs.
   
    81:30:00: Balanced after 1 trials
   
  WARNING: Negative pressures at 81:30:00 hrs.
  WARNING: Pump 10 open but exceeds maximum flow at 81:30:00 hrs.
  WARNING: Pump 335 open but exceeds maximum flow at 81:30:00 hrs.
   
    81:45:00: Balanced after 1 trials
   
  WARNING: Negative pressures at 81:45:00 hrs.
  WARNING: Pump 10 open but exceeds maximum flow at 81:45:00 hrs.
  WARNING: Pump 335 open but exceeds maximum flow at 81:45:00 hrs.
   
    82:00:00: Balanced after 2 trials
   
  WARNING: Negative pressures at 82:00:00 hrs.
  WARNING: Pump 10 open but exceeds maximum flow at 82:00:00 hrs.
  WARNING: Pump 335 open but exceeds maximum flow at 82:00:00 hrs.
   
    82:15:00: Balanced after 1 trials
   
  WARNING: Negative pressures at 82:15:00 hrs.
  WARNING: Pump 10 open but exceeds maximum flow at 82:15:00 hrs.
  WARNING: Pump 335 open but exceeds maximum flow at 82:15:00 hrs.
   
    82:30:00: Balanced after 1 trials
   
  WARNING: Negative pressures at 82:30:00 hrs.
  WARNING: Pump 10 open but exceeds maximum flow at 82:30:00 hrs.
  WARNING: Pump 335 open but exceeds maximum flow at 82:30:00 hrs.
   
    82:45:00: Balanced after 1 trials
   
  WARNING: Negative pressures at 82:45:00 hrs.
  WARNING: Pump 10 open but exceeds maximum flow at 82:45:00 hrs.
  WARNING: Pump 335 open but exceeds maximum flow at 82:45:00 hrs.
   
    83:00:00: Balanced after 2 trials
   
  WARNING: Negative pressures at 83:00:00 hrs.
  WARNING: Pump 10 open but exceeds maximum flow at 83:00:00 hrs.
  WARNING: Pump 335 open but exceeds maximum flow at 83:00:00 hrs.
   
    83:15:00: Balanced after 1 trials
   
  WARNING: Negative pressures at 83:15:00 hrs.
  WARNING: Pump 10 open but exceeds maximum flow at 83:15:00 hrs.
  WARNING: Pump 335 open but exceeds maximum flow at 83:15:00 hrs.
   
    83:30:00: Balanced after 1 trials
   
  WARNING: Negative pressures at 83:30:00 hrs.
  WARNING: Pump 10 open but exceeds maximum flow at 83:30:00 hrs.
  WARNING: Pump 335 open but exceeds maximum flow at 83:30:00 hrs.
   
    83:45:00: Balanced after 1 trials
   
  WARNING: Negative pressures at 83:45:00 hrs.
  WARNING: Pump 10 open but exceeds maximum flow at 83:45:00 hrs.
  WARNING: Pump 335 open but exceeds maximum flow at 83:45:00 hrs.
   
    84:00:00: Balanced after 2 trials
   
  WARNING: Negative pressures at 84:00:00 hrs.
  WARNING: Pump 10 open but exceeds maximum flow at 84:00:00 hrs.
  WARNING: Pump 335 open but exceeds maximum flow at 84:00:00 hrs.
   
    84:15:00: Balanced after 1 trials
   
  WARNING: Negative pressures at 84:15:00 hrs.
  WARNING: Pump 10 open but exceeds maximum flow at 84:15:00 hrs.
  WARNING: Pump 335 open but exceeds maximum flow at 84:15:00 hrs.
   
    84:30:00: Balanced after 1 trials
   
  WARNING: Negative pressures at 84:30:00 hrs.
  WARNING: Pump 10 open but exceeds maximum flow at 84:30:00 hrs.
  WARNING: Pump 335 open but exceeds maximum flow at 84:30:00 hrs.
   
    84:45:00: Balanced after 1 trials
   
  WARNING: Negative pressures at 84:45:00 hrs.
  WARNING: Pump 10 open but exceeds maximum flow at 84:45:00 hrs.
  WARNING: Pump 335 open but exceeds maximum flow at 84:45:00 hrs.
   
    85:00:00: Balanced after 2 trials
   
  WARNING: Negative pressures at 85:00:00 hrs.
  WARNING: Pump 10 open but exceeds maximum flow at 85:00:00 hrs.
  WARNING: Pump 335 open but exceeds maximum flow at 85:00:00 hrs.
   
    85:15:00: Balanced after 1 trials
   
  WARNING: Negative pressures at 85:15:00 hrs.
  WARNING: Pump 10 open but exceeds maximum flow at 85:15:00 hrs.
  WARNING: Pump 335 open but exceeds maximum flow at 85:15:00 hrs.
   
    85:30:00: Balanced after 1 trials
   
  WARNING: Negative pressures at 85:30:00 hrs.
  WARNING: Pump 10 open but exceeds maximum flow at 85:30:00 hrs.
  WARNING: Pump 335 open but exceeds maximum flow at 85:30:00 hrs.
   
    85:45:00: Balanced after 1 trials
   
  WARNING: Negative pressures at 85:45:00 hrs.
  WARNING: Pump 10 open but exceeds maximum flow at 85:45:00 hrs.
  WARNING: Pump 335 open but exceeds maximum flow at 85:45:00 hrs.
   
    86:00:00: Balanced after 2 trials
   
  WARNING: Negative pressures at 86:00:00 hrs.
  WARNING: Pump 10 open but exceeds maximum flow at 86:00:00 hrs.
  WARNING: Pump 335 open but exceeds maximum flow at 86:00:00 hrs.
   
    86:15:00: Balanced after 1 trials
   
  WARNING: Negative pressures at 86:15:00 hrs.
  WARNING: Pump 10 open but exceeds maximum flow at 86:15:00 hrs.
  WARNING: Pump 335 open but exceeds maximum flow at 86:15:00 hrs.
   
    86:30:00: Balanced after 1 trials
   
  WARNING: Negative pressures at 86:30:00 hrs.
  WARNING: Pump 10 open but exceeds maximum flow at 86:30:00 hrs.
  WARNING: Pump 335 open but exceeds maximum flow at 86:30:00 hrs.
   
    86:45:00: Balanced after 1 trials
   
  WARNING: Negative pressures at 86:45:00 hrs.
  WARNING: Pump 10 open but exceeds maximum flow at 86:45:00 hrs.
  WARNING: Pump 335 open but exceeds maximum flow at 86:45:00 hrs.
   
    87:00:00: Pump 10 changed by timer control
    87:00:00: Balanced after 4 trials
    87:00:00: Reservoir Lake is closed
    87:00:00: Pump 10 changed from open to closed
   
  WARNING: Negative pressures at 87:00:00 hrs.
  WARNING: Pump 335 open but exceeds maximum flow at 87:00:00 hrs.
   
    87:15:00: Balanced after 1 trials
   
  WARNING: Negative pressures at 87:15:00 hrs.
  WARNING: Pump 335 open but exceeds maximum flow at 87:15:00 hrs.
   
    87:30:00: Balanced after 1 trials
   
  WARNING: Negative pressures at 87:30:00 hrs.
  WARNING: Pump 335 open but exceeds maximum flow at 87:30:00 hrs.
   
    87:45:00: Balanced after 1 trials
   
  WARNING: Negative pressures at 87:45:00 hrs.
  WARNING: Pump 335 open but exceeds maximum flow at 87:45:00 hrs.
   
    88:00:00: Balanced after 2 trials
   
  WARNING: Negative pressures at 88:00:00 hrs.
  WARNING: Pump 335 open but exceeds maximum flow at 88:00:00 hrs.
   
    88:15:00: Balanced after 1 trials
   
  WARNING: Negative pressures at 88:15:00 hrs.
  WARNING: Pump 335 open but exceeds maximum flow at 88:15:00 hrs.
   
    88:30:00: Balanced after 1 trials
   
  WARNING: Negative pressures at 88:30:00 hrs.
  WARNING: Pump 335 open but exceeds maximum flow at 88:30:00 hrs.
   
    88:45:00: Balanced after 1 trials
   
  WARNING: Negative pressures at 88:45:00 hrs.
  WARNING: Pump 335 open but exceeds maximum flow at 88:45:00 hrs.
   
    89:00:00: Balanced after 2 trials
   
  WARNING: Negative pressures at 89:00:00 hrs.
  WARNING: Pump 335 open but exceeds maximum flow at 89:00:00 hrs.
   
    89:15:00: Balanced after 1 trials
   
  WARNING: Negative pressures at 89:15:00 hrs.
  WARNING: Pump 335 open but exceeds maximum flow at 89:15:00 hrs.
   
    89:30:00: Balanced after 1 trials
   
  WARNING: Negative pressures at 89:30:00 hrs.
  WARNING: Pump 335 open but exceeds maximum flow at 89:30:00 hrs.
   
    89:45:00: Balanced after 1 trials
   
  WARNING: Negative pressures at 89:45:00 hrs.
  WARNING: Pump 335 open but exceeds maximum flow at 89:45:00 hrs.
   
    90:00:00: Balanced after 2 trials
   
  WARNING: Negative pressures at 90:00:00 hrs.
  WARNING: Pump 335 open but exceeds maximum flow at 90:00:00 hrs.
   
    90:15:00: Balanced after 1 trials
   
  WARNING: Negative pressures at 90:15:00 hrs.
  WARNING: Pump 335 open but exceeds maximum flow at 90:15:00 hrs.
   
    90:30:00: Balanced after 1 trials
   
  WARNING: Negative pressures at 90:30:00 hrs.
  WARNING: Pump 335 open but exceeds maximum flow at 90:30:00 hrs.
   
    90:45:00: Balanced after 1 trials
   
  WARNING: Negative pressures at 90:45:00 hrs.
  WARNING: Pump 335 open but exceeds maximum flow at 90:45:00 hrs.
   
    91:00:00: Balanced after 1 trials
   
  WARNING: Negative pressures at 91:00:00 hrs.
  WARNING: Pump 335 open but exceeds maximum flow at 91:00:00 hrs.
   
    91:15:00: Balanced after 1 trials
   
  WARNING: Negative pressures at 91:15:00 hrs.
  WARNING: Pump 335 open but exceeds maximum flow at 91:15:00 hrs.
   
    91:30:00: Balanced after 1 trials
   
  WARNING: Negative pressures at 91:30:00 hrs.
  WARNING: Pump 335 open but exceeds maximum flow at 91:30:00 hrs.
   
    91:45:00: Balanced after 1 trials
   
  WARNING: Negative pressures at 91:45:00 hrs.
  WARNING: Pump 335 open but exceeds maximum flow at 91:45:00 hrs.
   
    92:00:00: Balanced after 2 trials
   
  WARNING: Negative pressures at 92:00:00 hrs.
  WARNING: Pump 335 open but exceeds maximum flow at 92:00:00 hrs.
   
    92:15:00: Balanced after 1 trials
   
  WARNING: Negative pressures at 92:15:00 hrs.
  WARNING: Pump 335 open but exceeds maximum flow at 92:15:00 hrs.
   
    92:30:00: Balanced after 1 trials
   
  WARNING: Negative pressures at 92:30:00 hrs.
  WARNING: Pump 335 open but exceeds maximum flow at 92:30:00 hrs.
   
    92:45:00: Balanced after 1 trials
   
  WARNING: Negative pressures at 92:45:00 hrs.
  WARNING: Pump 335 open but exceeds maximum flow at 92:45:00 hrs.
   
    93:00:00: Balanced after 2 trials
   
  WARNING: Negative pressures at 93:00:00 hrs.
  WARNING: Pump 335 open but exceeds maximum flow at 93:00:00 hrs.
   
    93:15:00: Balanced after 1 trials
   
  WARNING: Negative pressures at 93:15:00 hrs.
  WARNING: Pump 335 open but exceeds maximum flow at 93:15:00 hrs.
   
    93:30:00: Balanced after 1 trials
   
  WARNING: Negative pressures at 93:30:00 hrs.
  WARNING: Pump 335 open but exceeds maximum flow at 93:30:00 hrs.
   
    93:45:00: Balanced after 1 trials
   
  WARNING: Negative pressures at 93:45:00 hrs.
  WARNING: Pump 335 open but exceeds maximum flow at 93:45:00 hrs.
   
    94:00:00: Balanced after 2 trials
   
  WARNING: Negative pressures at 94:00:00 hrs.
  WARNING: Pump 335 open but exceeds maximum flow at 94:00:00 hrs.
   
    94:15:00: Balanced after 1 trials
   
  WARNING: Negative pressures at 94:15:00 hrs.
  WARNING: Pump 335 open but exceeds maximum flow at 94:15:00 hrs.
   
    94:30:00: Balanced after 1 trials
   
  WARNING: Negative pressures at 94:30:00 hrs.
  WARNING: Pump 335 open but exceeds maximum flow at 94:30:00 hrs.
   
    94:45:00: Balanced after 1 trials
   
  WARNING: Negative pressures at 94:45:00 hrs.
  WARNING: Pump 335 open but exceeds maximum flow at 94:45:00 hrs.
   
    95:00:00: Balanced after 2 trials
   
  WARNING: Negative pressures at 95:00:00 hrs.
  WARNING: Pump 335 open but exceeds maximum flow at 95:00:00 hrs.
   
    95:15:00: Balanced after 1 trials
   
  WARNING: Negative pressures at 95:15:00 hrs.
  WARNING: Pump 335 open but exceeds maximum flow at 95:15:00 hrs.
   
    95:30:00: Balanced after 1 trials
   
  WARNING: Negative pressures at 95:30:00 hrs.
  WARNING: Pump 335 open but exceeds maximum flow at 95:30:00 hrs.
   
    95:45:00: Balanced after 1 trials
   
  WARNING: Negative pressures at 95:45:00 hrs.
  WARNING: Pump 335 open but exceeds maximum flow at 95:45:00 hrs.
   
    96:00:00: Balanced after 2 trials
   
  WARNING: Negative pressures at 96:00:00 hrs.
  WARNING: Pump 335 open but exceeds maximum flow at 96:00:00 hrs.
   
    96:15:00: Balanced after 1 trials
   
  WARNING: Negative pressures at 96:15:00 hrs.
  WARNING: Pump 335 open but exceeds maximum flow at 96:15:00 hrs.
   
    96:30:00: Balanced after 1 trials
   
  WARNING: Negative pressures at 96:30:00 hrs.
  WARNING: Pump 335 open but exceeds maximum flow at 96:30:00 hrs.
   
    96:45:00: Balanced after 1 trials
   
  WARNING: Negative pressures at 96:45:00 hrs.
  WARNING: Pump 335 open but exceeds maximum flow at 96:45:00 hrs.
   
    97:00:00: Pump 10 changed by timer control
    97:00:00: Balanced after 5 trials
    97:00:00: Reservoir Lake is emptying
    97:00:00: Pump 10 changed from closed to open
   
  WARNING: Negative pressures at 97:00:00 hrs.
  WARNING: Pump 10 open but exceeds maximum flow at 97:00:00 hrs.
  WARNING: Pump 335 open but exceeds maximum flow at 97:00:00 hrs.
   
    97:15:00: Balanced after 1 trials
   
  WARNING: Negative pressures at 97:15:00 hrs.
  WARNING: Pump 10 open but exceeds maximum flow at 97:15:00 hrs.
[...]
  WARNING: Pump 335 open but exceeds maximum flow at 144:00:00 hrs.
   
   144:15:00: Balanced after 1 trials
   
  WARNING: Negative pressures at 144:15:00 hrs.
  WARNING: Pump 335 open but exceeds maximum flow at 144:15:00 hrs.
   
   144:30:00: Balanced after 1 trials
   
  WARNING: Negative pressures at 144:30:00 hrs.
  WARNING: Pump 335 open but exceeds maximum flow at 144:30:00 hrs.
   
   144:45:00: Balanced after 1 trials
   
  WARNING: Negative pressures at 144:45:00 hrs.
  WARNING: Pump 335 open but exceeds maximum flow at 144:45:00 hrs.
   
   145:00:00: Pump 10 changed by timer control
   145:00:00: Balanced after 5 trials
   145:00:00: Reservoir Lake is emptying
   145:00:00: Pump 10 changed from closed to open
   
  WARNING: Negative pressures at 145:00:00 hrs.
  WARNING: Pump 10 open but exceeds maximum flow at 145:00:00 hrs.
  WARNING: Pump 335 open but exceeds maximum flow at 145:00:00 hrs.
   
   145:15:00: Balanced after 1 trials
   
  WARNING: Negative pressures at 145:15:00 hrs.
  WARNING: Pump 10 open but exceeds maximum flow at 145:15:00 hrs.
  WARNING: Pump 335 open but exceeds maximum flow at 145:15:00 hrs.
   
   145:30:00: Balanced after 1 trials
   
  WARNING: Negative pressures at 145:30:00 hrs.
  WARNING: Pump 10 open but exceeds maximum flow at 145:30:00 hrs.
  WARNING: Pump 335 open but exceeds maximum flow at 145:30:00 hrs.
   
   145:45:00: Balanced after 1 trials
   
  WARNING: Negative pressures at 145:45:00 hrs.
  WARNING: Pump 10 open but exceeds maximum flow at 145:45:00 hrs.
  WARNING: Pump 335 open but exceeds maximum flow at 145:45:00 hrs.
   
   146:00:00: Balanced after 2 trials
   
  WARNING: Negative pressures at 146:00:00 hrs.
  WARNING: Pump 10 open but exceeds maximum flow at 146:00:00 hrs.
  WARNING: Pump 335 open but exceeds maximum flow at 146:00:00 hrs.
   
   146:15:00: Balanced after 1 trials
   
  WARNING: Negative pressures at 146:15:00 hrs.
  WARNING: Pump 10 open but exceeds maximum flow at 146:15:00 hrs.
  WARNING: Pump 335 open but exceeds maximum flow at 146:15:00 hrs.
   
   146:30:00: Balanced after 1 trials
   
  WARNING: Negative pressures at 146:30:00 hrs.
  WARNING: Pump 10 open but exceeds maximum flow at 146:30:00 hrs.
  WARNING: Pump 335 open but exceeds maximum flow at 146:30:00 hrs.
   
   146:45:00: Balanced after 1 trials
   
  WARNING: Negative pressures at 146:45:00 hrs.
  WARNING: Pump 10 open but exceeds maximum flow at 146:45:00 hrs.
  WARNING: Pump 335 open but exceeds maximum flow at 146:45:00 hrs.
   
   147:00:00: Balanced after 2 trials
   
  WARNING: Negative pressures at 147:00:00 hrs.
  WARNING: Pump 10 open but exceeds maximum flow at 147:00:00 hrs.
  WARNING: Pump 335 open but exceeds maximum flow at 147:00:00 hrs.
   
   147:15:00: Balanced after 1 trials
   
  WARNING: Negative pressures at 147:15:00 hrs.
  WARNING: Pump 10 open but exceeds maximum flow at 147:15:00 hrs.
  WARNING: Pump 335 open but exceeds maximum flow at 147:15:00 hrs.
   
   147:30:00: Balanced after 1 trials
   
  WARNING: Negative pressures at 147:30:00 hrs.
  WARNING: Pump 10 open but exceeds maximum flow at 147:30:00 hrs.
  WARNING: Pump 335 open but exceeds maximum flow at 147:30:00 hrs.
   
   147:45:00: Balanced after 1 trials
   
  WARNING: Negative pressures at 147:45:00 hrs.
  WARNING: Pump 10 open but exceeds maximum flow at 147:45:00 hrs.
  WARNING: Pump 335 open but exceeds maximum flow at 147:45:00 hrs.
   
   148:00:00: Balanced after 2 trials
   
  WARNING: Negative pressures at 148:00:00 hrs.
  WARNING: Pump 10 open but exceeds maximum flow at 148:00:00 hrs.
  WARNING: Pump 335 open but exceeds maximum flow at 148:00:00 hrs.
   
   148:15:00: Balanced after 1 trials
   
  WARNING: Negative pressures at 148:15:00 hrs.
  WARNING: Pump 10 open but exceeds maximum flow at 148:15:00 hrs.
  WARNING: Pump 335 open but exceeds maximum flow at 148:15:00 hrs.
   
   148:30:00: Balanced after 1 trials
   
  WARNING: Negative pressures at 148:30:00 hrs.
  WARNING: Pump 10 open but exceeds maximum flow at 148:30:00 hrs.
  WARNING: Pump 335 open but exceeds maximum flow at 148:30:00 hrs.
   
   148:45:00: Balanced after 1 trials
   
  WARNING: Negative pressures at 148:45:00 hrs.
  WARNING: Pump 10 open but exceeds maximum flow at 148:45:00 hrs.
  WARNING: Pump 335 open but exceeds maximum flow at 148:45:00 hrs.
   
   149:00:00: Balanced after 2 trials
   
  WARNING: Negative pressures at 149:00:00 hrs.
  WARNING: Pump 10 open but exceeds maximum flow at 149:00:00 hrs.
  WARNING: Pump 335 open but exceeds maximum flow at 149:00:00 hrs.
   
   149:15:00: Balanced after 1 trials
   
  WARNING: Negative pressures at 149:15:00 hrs.
  WARNING: Pump 10 open but exceeds maximum flow at 149:15:00 hrs.
  WARNING: Pump 335 open but exceeds maximum flow at 149:15:00 hrs.
   
   149:30:00: Balanced after 1 trials
   
  WARNING: Negative pressures at 149:30:00 hrs.
  WARNING: Pump 10 open but exceeds maximum flow at 149:30:00 hrs.
  WARNING: Pump 335 open but exceeds maximum flow at 149:30:00 hrs.
   
   149:45:00: Balanced after 1 trials
   
  WARNING: Negative pressures at 149:45:00 hrs.
  WARNING: Pump 10 open but exceeds maximum flow at 149:45:00 hrs.
  WARNING: Pump 335 open but exceeds maximum flow at 149:45:00 hrs.
   
   150:00:00: Balanced after 2 trials
   
  WARNING: Negative pressures at 150:00:00 hrs.
  WARNING: Pump 10 open but exceeds maximum flow at 150:00:00 hrs.
  WARNING: Pump 335 open but exceeds maximum flow at 150:00:00 hrs.
   
   150:15:00: Balanced after 1 trials
   
  WARNING: Negative pressures at 150:15:00 hrs.
  WARNING: Pump 10 open but exceeds maximum flow at 150:15:00 hrs.
  WARNING: Pump 335 open but exceeds maximum flow at 150:15:00 hrs.
   
   150:30:00: Balanced after 1 trials
   
  WARNING: Negative pressures at 150:30:00 hrs.
  WARNING: Pump 10 open but exceeds maximum flow at 150:30:00 hrs.
  WARNING: Pump 335 open but exceeds maximum flow at 150:30:00 hrs.
   
   150:45:00: Balanced after 1 trials
   
  WARNING: Negative pressures at 150:45:00 hrs.
  WARNING: Pump 10 open but exceeds maximum flow at 150:45:00 hrs.
  WARNING: Pump 335 open but exceeds maximum flow at 150:45:00 hrs.
   
   151:00:00: Balanced after 2 trials
   
  WARNING: Negative pressures at 151:00:00 hrs.
  WARNING: Pump 10 open but exceeds maximum flow at 151:00:00 hrs.
  WARNING: Pump 335 open but exceeds maximum flow at 151:00:00 hrs.
   
   151:15:00: Balanced after 1 trials
   
  WARNING: Negative pressures at 151:15:00 hrs.
  WARNING: Pump 10 open but exceeds maximum flow at 151:15:00 hrs.
  WARNING: Pump 335 open but exceeds maximum flow at 151:15:00 hrs.
   
   151:30:00: Balanced after 1 trials
   
  WARNING: Negative pressures at 151:30:00 hrs.
  WARNING: Pump 10 open but exceeds maximum flow at 151:30:00 hrs.
  WARNING: Pump 335 open but exceeds maximum flow at 151:30:00 hrs.
   
   151:45:00: Balanced after 1 trials
   
  WARNING: Negative pressures at 151:45:00 hrs.
  WARNING: Pump 10 open but exceeds maximum flow at 151:45:00 hrs.
  WARNING: Pump 335 open but exceeds maximum flow at 151:45:00 hrs.
   
   152:00:00: Balanced after 2 trials
   
  WARNING: Negative pressures at 152:00:00 hrs.
  WARNING: Pump 10 open but exceeds maximum flow at 152:00:00 hrs.
  WARNING: Pump 335 open but exceeds maximum flow at 152:00:00 hrs.
   
   152:15:00: Balanced after 1 trials
   
  WARNING: Negative pressures at 152:15:00 hrs.
  WARNING: Pump 10 open but exceeds maximum flow at 152:15:00 hrs.
  WARNING: Pump 335 open but exceeds maximum flow at 152:15:00 hrs.
   
   152:30:00: Balanced after 1 trials
   
  WARNING: Negative pressures at 152:30:00 hrs.
  WARNING: Pump 10 open but exceeds maximum flow at 152:30:00 hrs.
  WARNING: Pump 335 open but exceeds maximum flow at 152:30:00 hrs.
   
   152:45:00: Balanced after 1 trials
   
  WARNING: Negative pressures at 152:45:00 hrs.
  WARNING: Pump 10 open but exceeds maximum flow at 152:45:00 hrs.
  WARNING: Pump 335 open but exceeds maximum flow at 152:45:00 hrs.
   
   153:00:00: Balanced after 2 trials
   
  WARNING: Negative pressures at 153:00:00 hrs.
  WARNING: Pump 10 open but exceeds maximum flow at 153:00:00 hrs.
  WARNING: Pump 335 open but exceeds maximum flow at 153:00:00 hrs.
   
   153:15:00: Balanced after 1 trials
   
  WARNING: Negative pressures at 153:15:00 hrs.
  WARNING: Pump 10 open but exceeds maximum flow at 153:15:00 hrs.
  WARNING: Pump 335 open but exceeds maximum flow at 153:15:00 hrs.
   
   153:30:00: Balanced after 1 trials
   
  WARNING: Negative pressures at 153:30:00 hrs.
  WARNING: Pump 10 open but exceeds maximum flow at 153:30:00 hrs.
  WARNING: Pump 335 open but exceeds maximum flow at 153:30:00 hrs.
   
   153:45:00: Balanced after 1 trials
   
  WARNING: Negative pressures at 153:45:00 hrs.
  WARNING: Pump 10 open but exceeds maximum flow at 153:45:00 hrs.
  WARNING: Pump 335 open but exceeds maximum flow at 153:45:00 hrs.
   
   154:00:00: Balanced after 2 trials
   
  WARNING: Negative pressures at 154:00:00 hrs.
  WARNING: Pump 10 open but exceeds maximum flow at 154:00:00 hrs.
  WARNING: Pump 335 open but exceeds maximum flow at 154:00:00 hrs.
   
   154:15:00: Balanced after 1 trials
   
  WARNING: Negative pressures at 154:15:00 hrs.
  WARNING: Pump 10 open but exceeds maximum flow at 154:15:00 hrs.
  WARNING: Pump 335 open but exceeds maximum flow at 154:15:00 hrs.
   
   154:30:00: Balanced after 1 trials
   
  WARNING: Negative pressures at 154:30:00 hrs.
  WARNING: Pump 10 open but exceeds maximum flow at 154:30:00 hrs.
  WARNING: Pump 335 open but exceeds maximum flow at 154:30:00 hrs.
   
   154:45:00: Balanced after 1 trials
   
  WARNING: Negative pressures at 154:45:00 hrs.
  WARNING: Pump 10 open but exceeds maximum flow at 154:45:00 hrs.
  WARNING: Pump 335 open but exceeds maximum flow at 154:45:00 hrs.
   
   155:00:00: Balanced after 2 trials
   
  WARNING: Negative pressures at 155:00:00 hrs.
  WARNING: Pump 10 open but exceeds maximum flow at 155:00:00 hrs.
  WARNING: Pump 335 open but exceeds maximum flow at 155:00:00 hrs.
   
   155:15:00: Balanced after 1 trials
   
  WARNING: Negative pressures at 155:15:00 hrs.
  WARNING: Pump 10 open but exceeds maximum flow at 155:15:00 hrs.
  WARNING: Pump 335 open but exceeds maximum flow at 155:15:00 hrs.
   
   155:30:00: Balanced after 1 trials
   
  WARNING: Negative pressures at 155:30:00 hrs.
  WARNING: Pump 10 open but exceeds maximum flow at 155:30:00 hrs.
  WARNING: Pump 335 open but exceeds maximum flow at 155:30:00 hrs.
   
   155:45:00: Balanced after 1 trials
   
  WARNING: Negative pressures at 155:45:00 hrs.
  WARNING: Pump 10 open but exceeds maximum flow at 155:45:00 hrs.
  WARNING: Pump 335 open but exceeds maximum flow at 155:45:00 hrs.
   
   156:00:00: Balanced after 2 trials
   
  WARNING: Negative pressures at 156:00:00 hrs.
  WARNING: Pump 10 open but exceeds maximum flow at 156:00:00 hrs.
  WARNING: Pump 335 open but exceeds maximum flow at 156:00:00 hrs.
   
   156:15:00: Balanced after 1 trials
   
  WARNING: Negative pressures at 156:15:00 hrs.
  WARNING: Pump 10 open but exceeds maximum flow at 156:15:00 hrs.
  WARNING: Pump 335 open but exceeds maximum flow at 156:15:00 hrs.
   
   156:30:00: Balanced after 1 trials
   
  WARNING: Negative pressures at 156:30:00 hrs.
  WARNING: Pump 10 open but exceeds maximum flow at 156:30:00 hrs.
  WARNING: Pump 335 open but exceeds maximum flow at 156:30:00 hrs.
   
   156:45:00: Balanced after 1 trials
   
  WARNING: Negative pressures at 156:45:00 hrs.
  WARNING: Pump 10 open but exceeds maximum flow at 156:45:00 hrs.
  WARNING: Pump 335 open but exceeds maximum flow at 156:45:00 hrs.
   
   157:00:00: Balanced after 2 trials
   
  WARNING: Negative pressures at 157:00:00 hrs.
  WARNING: Pump 10 open but exceeds maximum flow at 157:00:00 hrs.
  WARNING: Pump 335 open but exceeds maximum flow at 157:00:00 hrs.
   
   157:15:00: Balanced after 1 trials
   
  WARNING: Negative pressures at 157:15:00 hrs.
  WARNING: Pump 10 open but exceeds maximum flow at 157:15:00 hrs.
  WARNING: Pump 335 open but exceeds maximum flow at 157:15:00 hrs.
   
   157:30:00: Balanced after 1 trials
   
  WARNING: Negative pressures at 157:30:00 hrs.
  WARNING: Pump 10 open but exceeds maximum flow at 157:30:00 hrs.
  WARNING: Pump 335 open but exceeds maximum flow at 157:30:00 hrs.
   
   157:45:00: Balanced after 1 trials
   
  WARNING: Negative pressures at 157:45:00 hrs.
  WARNING: Pump 10 open but exceeds maximum flow at 157:45:00 hrs.
  WARNING: Pump 335 open but exceeds maximum flow at 157:45:00 hrs.
   
   158:00:00: Balanced after 2 trials
   
  WARNING: Negative pressures at 158:00:00 hrs.
  WARNING: Pump 10 open but exceeds maximum flow at 158:00:00 hrs.
  WARNING: Pump 335 open but exceeds maximum flow at 158:00:00 hrs.
   
   158:15:00: Balanced after 1 trials
   
  WARNING: Negative pressures at 158:15:00 hrs.
  WARNING: Pump 10 open but exceeds maximum flow at 158:15:00 hrs.
  WARNING: Pump 335 open but exceeds maximum flow at 158:15:00 hrs.
   
   158:30:00: Balanced after 1 trials
   
  WARNING: Negative pressures at 158:30:00 hrs.
  WARNING: Pump 10 open but exceeds maximum flow at 158:30:00 hrs.
  WARNING: Pump 335 open but exceeds maximum flow at 158:30:00 hrs.
   
   158:45:00: Balanced after 1 trials
   
  WARNING: Negative pressures at 158:45:00 hrs.
  WARNING: Pump 10 open but exceeds maximum flow at 158:45:00 hrs.
  WARNING: Pump 335 open but exceeds maximum flow at 158:45:00 hrs.
   
   159:00:00: Pump 10 changed by timer control
   159:00:00: Balanced after 4 trials
   159:00:00: Reservoir Lake is closed
   159:00:00: Pump 10 changed from open to closed
   
  WARNING: Negative pressures at 159:00:00 hrs.
  WARNING: Pump 335 open but exceeds maximum flow at 159:00:00 hrs.
   
   159:15:00: Balanced after 1 trials
   
  WARNING: Negative pressures at 159:15:00 hrs.
  WARNING: Pump 335 open but exceeds maximum flow at 159:15:00 hrs.
   
   159:30:00: Balanced after 1 trials
   
  WARNING: Negative pressures at 159:30:00 hrs.
  WARNING: Pump 335 open but exceeds maximum flow at 159:30:00 hrs.
   
   159:45:00: Balanced after 1 trials
   
  WARNING: Negative pressures at 159:45:00 hrs.
  WARNING: Pump 335 open but exceeds maximum flow at 159:45:00 hrs.
   
   160:00:00: Balanced after 2 trials
   
  WARNING: Negative pressures at 160:00:00 hrs.
  WARNING: Pump 335 open but exceeds maximum flow at 160:00:00 hrs.
   
   160:15:00: Balanced after 1 trials
   
  WARNING: Negative pressures at 160:15:00 hrs.
  WARNING: Pump 335 open but exceeds maximum flow at 160:15:00 hrs.
   
   160:30:00: Balanced after 1 trials
   
  WARNING: Negative pressures at 160:30:00 hrs.
  WARNING: Pump 335 open but exceeds maximum flow at 160:30:00 hrs.
   
   160:45:00: Balanced after 1 trials
   
  WARNING: Negative pressures at 160:45:00 hrs.
  WARNING: Pump 335 open but exceeds maximum flow at 160:45:00 hrs.
   
   161:00:00: Balanced after 2 trials
   
  WARNING: Negative pressures at 161:00:00 hrs.
  WARNING: Pump 335 open but exceeds maximum flow at 161:00:00 hrs.
   
   161:15:00: Balanced after 1 trials
   
  WARNING: Negative pressures at 161:15:00 hrs.
  WARNING: Pump 335 open but exceeds maximum flow at 161:15:00 hrs.
   
   161:30:00: Balanced after 1 trials
   
  WARNING: Negative pressures at 161:30:00 hrs.
  WARNING: Pump 335 open but exceeds maximum flow at 161:30:00 hrs.
   
   161:45:00: Balanced after 1 trials
   
  WARNING: Negative pressures at 161:45:00 hrs.
  WARNING: Pump 335 open but exceeds maximum flow at 161:45:00 hrs.
   
   162:00:00: Balanced after 2 trials
   
  WARNING: Negative pressures at 162:00:00 hrs.
  WARNING: Pump 335 open but exceeds maximum flow at 162:00:00 hrs.
   
   162:15:00: Balanced after 1 trials
   
  WARNING: Negative pressures at 162:15:00 hrs.
  WARNING: Pump 335 open but exceeds maximum flow at 162:15:00 hrs.
   
   162:30:00: Balanced after 1 trials
   
  WARNING: Negative pressures at 162:30:00 hrs.
  WARNING: Pump 335 open but exceeds maximum flow at 162:30:00 hrs.
   
   162:45:00: Balanced after 1 trials
   
  WARNING: Negative pressures at 162:45:00 hrs.
  WARNING: Pump 335 open but exceeds maximum flow at 162:45:00 hrs.
   
   163:00:00: Balanced after 1 trials
   
  WARNING: Negative pressures at 163:00:00 hrs.
  WARNING: Pump 335 open but exceeds maximum flow at 163:00:00 hrs.
   
   163:15:00: Balanced after 1 trials
   
  WARNING: Negative pressures at 163:15:00 hrs.
  WARNING: Pump 335 open but exceeds maximum flow at 163:15:00 hrs.
   
   163:30:00: Balanced after 1 trials
   
  WARNING: Negative pressures at 163:30:00 hrs.
  WARNING: Pump 335 open but exceeds maximum flow at 163:30:00 hrs.
   
   163:45:00: Balanced after 1 trials
   
  WARNING: Negative pressures at 163:45:00 hrs.
  WARNING: Pump 335 open but exceeds maximum flow at 163:45:00 hrs.
   
   164:00:00: Balanced after 2 trials
   
  WARNING: Negative pressures at 164:00:00 hrs.
  WARNING: Pump 335 open but exceeds maximum flow at 164:00:00 hrs.
   
   164:15:00: Balanced after 1 trials
   
  WARNING: Negative pressures at 164:15:00 hrs.
  WARNING: Pump 335 open but exceeds maximum flow at 164:15:00 hrs.
   
   164:30:00: Balanced after 1 trials
   
  WARNING: Negative pressures at 164:30:00 hrs.
  WARNING: Pump 335 open but exceeds maximum flow at 164:30:00 hrs.
   
   164:45:00: Balanced after 1 trials
   
  WARNING: Negative pressures at 164:45:00 hrs.
  WARNING: Pump 335 open but exceeds maximum flow at 164:45:00 hrs.
   
   165:00:00: Balanced after 2 trials
   
  WARNING: Negative pressures at 165:00:00 hrs.
  WARNING: Pump 335 open but exceeds maximum flow at 165:00:00 hrs.
   
   165:15:00: Balanced after 1 trials
   
  WARNING: Negative pressures at 165:15:00 hrs.
  WARNING: Pump 335 open but exceeds maximum flow at 165:15:00 hrs.
   
   165:30:00: Balanced after 1 trials
   
  WARNING: Negative pressures at 165:30:00 hrs.
  WARNING: Pump 335 open but exceeds maximum flow at 165:30:00 hrs.
   
   165:45:00: Balanced after 1 trials
   
  WARNING: Negative pressures at 165:45:00 hrs.
  WARNING: Pump 335 open but exceeds maximum flow at 165:45:00 hrs.
   
   166:00:00: Balanced after 2 trials
   
  WARNING: Negative pressures at 166:00:00 hrs.
  WARNING: Pump 335 open but exceeds maximum flow at 166:00:00 hrs.
   
   166:15:00: Balanced after 1 trials
   
  WARNING: Negative pressures at 166:15:00 hrs.
  WARNING: Pump 335 open but exceeds maximum flow at 166:15:00 hrs.
   
   166:30:00: Balanced after 1 trials
   
  WARNING: Negative pressures at 166:30:00 hrs.
  WARNING: Pump 335 open but exceeds maximum flow at 166:30:00 hrs.
   
   166:45:00: Balanced after 1 trials
   
  WARNING: Negative pressures at 166:45:00 hrs.
  WARNING: Pump 335 open but exceeds maximum flow at 166:45:00 hrs.
   
   167:00:00: Balanced after 2 trials
   
  WARNING: Negative pressures at 167:00:00 hrs.
  WARNING: Pump 335 open but exceeds maximum flow at 167:00:00 hrs.
   
   167:15:00: Balanced after 1 trials
   
  WARNING: Negative pressures at 167:15:00 hrs.
  WARNING: Pump 335 open but exceeds maximum flow at 167:15:00 hrs.
   
   167:30:00: Balanced after 1 trials
   
  WARNING: Negative pressures at 167:30:00 hrs.
  WARNING: Pump 335 open but exceeds maximum flow at 167:30:00 hrs.
   
   167:45:00: Balanced after 1 trials
   
  WARNING: Negative pressures at 167:45:00 hrs.
  WARNING: Pump 335 open but exceeds maximum flow at 167:45:00 hrs.
   
   168:00:00: Balanced after 2 trials
   
  WARNING: Negative pressures at 168:00:00 hrs.
  WARNING: Pump 335 open but exceeds maximum flow at 168:00:00 hrs.
   
  Water Quality Mass Balance (mg)
  ================================
  Initial Mass:      0.00000e+000
  Mass Inflow:       0.00000e+000
  Mass Outflow:      0.00000e+000
  Mass Reacted:      0.00000e+000
  Final Mass:        0.00000e+000
  Mass Ratio:         1.00000
  ================================

  Analysis ended Sat Jan 14 21:29:20 2023
